# generated using pymatgen
data_Ba(SnO2)4
_symmetry_space_group_name_H-M   'P 1'
_cell_length_a   6.03534450
_cell_length_b   6.03534450
_cell_length_c   7.26959719
_cell_angle_alpha   90.00000000
_cell_angle_beta   90.00000000
_cell_angle_gamma   119.99999810
_symmetry_Int_Tables_number   1
_chemical_formula_structural   Ba(SnO2)4
_chemical_formula_sum   'Ba1 Sn4 O8'
_cell_volume   229.32168069
_cell_formula_units_Z   1
loop_
 _symmetry_equiv_pos_site_id
 _symmetry_equiv_pos_as_xyz
  1  'x, y, z'
loop_
 _atom_site_type_symbol
 _atom_site_label
 _atom_site_symmetry_multiplicity
 _atom_site_fract_x
 _atom_site_fract_y
 _atom_site_fract_z
 _atom_site_occupancy
  Ba  Ba0  1  0.00000000  0.00000000  0.00000000  1
  Sn  Sn1  1  0.33333300  0.66666700  0.27434154  1
  Sn  Sn2  1  0.66666700  0.33333300  0.27434154  1
  Sn  Sn3  1  0.33333300  0.66666700  0.72565846  1
  Sn  Sn4  1  0.66666700  0.33333300  0.72565846  1
  O  O5  1  0.67051537  0.67051537  0.29874637  1
  O  O6  1  -0.00000000  0.32948463  0.29874637  1
  O  O7  1  0.32948463  -0.00000000  0.29874637  1
  O  O8  1  0.32948463  0.32948463  0.70125363  1
  O  O9  1  0.67051537  0.00000000  0.70125363  1
  O  O10  1  0.00000000  0.67051537  0.70125363  1
  O  O11  1  0.33333300  0.66666700  0.00000000  1
  O  O12  1  0.66666700  0.33333300  0.00000000  1
