# generated using pymatgen
data_Mg5(HO3)2
_symmetry_space_group_name_H-M   'P 1'
_cell_length_a   3.02855522
_cell_length_b   3.02855522
_cell_length_c   14.71289054
_cell_angle_alpha   90.00000000
_cell_angle_beta   90.00000000
_cell_angle_gamma   120.00000102
_symmetry_Int_Tables_number   1
_chemical_formula_structural   Mg5(HO3)2
_chemical_formula_sum   'Mg5 H2 O6'
_cell_volume   116.86907975
_cell_formula_units_Z   1
loop_
 _symmetry_equiv_pos_site_id
 _symmetry_equiv_pos_as_xyz
  1  'x, y, z'
loop_
 _atom_site_type_symbol
 _atom_site_label
 _atom_site_symmetry_multiplicity
 _atom_site_fract_x
 _atom_site_fract_y
 _atom_site_fract_z
 _atom_site_occupancy
  Mg  Mg0  1  0.66666700  0.33333300  0.66856926  1
  Mg  Mg1  1  0.33333300  0.66666700  0.33143074  1
  Mg  Mg2  1  0.33333300  0.66666700  0.83460410  1
  Mg  Mg3  1  0.66666700  0.33333300  0.16539590  1
  Mg  Mg4  1  0.00000000  0.00000000  0.00000000  1
  H  H5  1  0.33333300  0.66666700  0.52975026  1
  H  H6  1  0.66666700  0.33333300  0.47024974  1
  O  O7  1  0.33333300  0.66666700  0.08270489  1
  O  O8  1  0.66666700  0.33333300  0.91729511  1
  O  O9  1  0.00000000  0.00000000  0.24822939  1
  O  O10  1  0.66666700  0.33333300  0.40428867  1
  O  O11  1  0.33333300  0.66666700  0.59571133  1
  O  O12  1  0.00000000  0.00000000  0.75177061  1
