# generated using pymatgen
data_AgClO2
_symmetry_space_group_name_H-M   'P 1'
_cell_length_a   6.00044399
_cell_length_b   6.10218892
_cell_length_c   6.65624953
_cell_angle_alpha   90.00000000
_cell_angle_beta   90.00000000
_cell_angle_gamma   90.00000000
_symmetry_Int_Tables_number   1
_chemical_formula_structural   AgClO2
_chemical_formula_sum   'Ag4 Cl4 O8'
_cell_volume   243.72418662
_cell_formula_units_Z   4
loop_
 _symmetry_equiv_pos_site_id
 _symmetry_equiv_pos_as_xyz
  1  'x, y, z'
loop_
 _atom_site_type_symbol
 _atom_site_label
 _atom_site_symmetry_multiplicity
 _atom_site_fract_x
 _atom_site_fract_y
 _atom_site_fract_z
 _atom_site_occupancy
  Ag  Ag0  1  0.50000000  0.25000000  0.10422403  1
  Ag  Ag1  1  0.00000000  0.25000000  0.89577597  1
  Ag  Ag2  1  0.50000000  0.75000000  0.89577597  1
  Ag  Ag3  1  0.00000000  0.75000000  0.10422403  1
  Cl  Cl4  1  0.00000000  0.75000000  0.62161795  1
  Cl  Cl5  1  0.00000000  0.25000000  0.37838205  1
  Cl  Cl6  1  0.50000000  0.75000000  0.37838205  1
  Cl  Cl7  1  0.50000000  0.25000000  0.62161795  1
  O  O8  1  0.65392571  0.39624953  0.76550313  1
  O  O9  1  0.15392571  0.10375047  0.23449687  1
  O  O10  1  0.84607429  0.39624953  0.23449687  1
  O  O11  1  0.34607429  0.10375047  0.76550313  1
  O  O12  1  0.34607429  0.60375047  0.23449687  1
  O  O13  1  0.65392571  0.89624953  0.23449687  1
  O  O14  1  0.15392571  0.60375047  0.76550313  1
  O  O15  1  0.84607429  0.89624953  0.76550313  1
