# generated using pymatgen
data_Mg4H2O5
_symmetry_space_group_name_H-M   'P 1'
_cell_length_a   3.03999893
_cell_length_b   3.03999893
_cell_length_c   12.05569806
_cell_angle_alpha   90.00000000
_cell_angle_beta   90.00000000
_cell_angle_gamma   120.00001200
_symmetry_Int_Tables_number   1
_chemical_formula_structural   Mg4H2O5
_chemical_formula_sum   'Mg4 H2 O5'
_cell_volume   96.48722234
_cell_formula_units_Z   1
loop_
 _symmetry_equiv_pos_site_id
 _symmetry_equiv_pos_as_xyz
  1  'x, y, z'
loop_
 _atom_site_type_symbol
 _atom_site_label
 _atom_site_symmetry_multiplicity
 _atom_site_fract_x
 _atom_site_fract_y
 _atom_site_fract_z
 _atom_site_occupancy
  Mg  Mg0  1  0.33333300  0.66666700  0.89922907  1
  Mg  Mg1  1  0.66666700  0.33333300  0.10077093  1
  Mg  Mg2  1  0.00000000  0.00000000  0.69685725  1
  Mg  Mg3  1  0.00000000  0.00000000  0.30314275  1
  H  H4  1  0.66666700  0.33333300  0.47246136  1
  H  H5  1  0.33333300  0.66666700  0.52753864  1
  O  O6  1  0.33333300  0.66666700  0.20173313  1
  O  O7  1  0.66666700  0.33333300  0.79826687  1
  O  O8  1  0.33333300  0.66666700  0.60820442  1
  O  O9  1  0.66666700  0.33333300  0.39179558  1
  O  O10  1  0.00000000  0.00000000  0.00000000  1
