# generated using pymatgen
data_NbSe2
_symmetry_space_group_name_H-M   'P 1'
_cell_length_a   3.50543338
_cell_length_b   3.50543338
_cell_length_c   6.31672069
_cell_angle_alpha   90.00000000
_cell_angle_beta   90.00000000
_cell_angle_gamma   119.99998362
_symmetry_Int_Tables_number   1
_chemical_formula_structural   NbSe2
_chemical_formula_sum   'Nb1 Se2'
_cell_volume   67.22113059
_cell_formula_units_Z   1
loop_
 _symmetry_equiv_pos_site_id
 _symmetry_equiv_pos_as_xyz
  1  'x, y, z'
loop_
 _atom_site_type_symbol
 _atom_site_label
 _atom_site_symmetry_multiplicity
 _atom_site_fract_x
 _atom_site_fract_y
 _atom_site_fract_z
 _atom_site_occupancy
  Nb  Nb0  1  0.00000000  0.00000000  0.00000000  1
  Se  Se1  1  0.66666700  0.33333300  0.26477213  1
  Se  Se2  1  0.33333300  0.66666700  0.73522787  1
