# generated using pymatgen
data_KAgSe
_symmetry_space_group_name_H-M   'P 1'
_cell_length_a   4.49955012
_cell_length_b   4.49955012
_cell_length_c   7.68613784
_cell_angle_alpha   90.00000000
_cell_angle_beta   90.00000000
_cell_angle_gamma   90.00000000
_symmetry_Int_Tables_number   1
_chemical_formula_structural   KAgSe
_chemical_formula_sum   'K2 Ag2 Se2'
_cell_volume   155.61317190
_cell_formula_units_Z   2
loop_
 _symmetry_equiv_pos_site_id
 _symmetry_equiv_pos_as_xyz
  1  'x, y, z'
loop_
 _atom_site_type_symbol
 _atom_site_label
 _atom_site_symmetry_multiplicity
 _atom_site_fract_x
 _atom_site_fract_y
 _atom_site_fract_z
 _atom_site_occupancy
  K  K0  1  0.00000000  0.50000000  0.33970328  1
  K  K1  1  0.50000000  0.00000000  0.66029672  1
  Ag  Ag2  1  0.00000000  0.00000000  0.00000000  1
  Ag  Ag3  1  0.50000000  0.50000000  0.00000000  1
  Se  Se4  1  0.50000000  0.00000000  0.22129160  1
  Se  Se5  1  0.00000000  0.50000000  0.77870840  1
