# generated using pymatgen
data_UTeO
_symmetry_space_group_name_H-M   'P 1'
_cell_length_a   3.90048653
_cell_length_b   3.90048653
_cell_length_c   8.53563934
_cell_angle_alpha   90.00000000
_cell_angle_beta   90.00000000
_cell_angle_gamma   90.00000000
_symmetry_Int_Tables_number   1
_chemical_formula_structural   UTeO
_chemical_formula_sum   'U2 Te2 O2'
_cell_volume   129.85946859
_cell_formula_units_Z   2
loop_
 _symmetry_equiv_pos_site_id
 _symmetry_equiv_pos_as_xyz
  1  'x, y, z'
loop_
 _atom_site_type_symbol
 _atom_site_label
 _atom_site_symmetry_multiplicity
 _atom_site_fract_x
 _atom_site_fract_y
 _atom_site_fract_z
 _atom_site_occupancy
  U  U0  1  0.00000000  0.50000000  0.14898577  1
  U  U1  1  0.50000000  0.00000000  0.85101423  1
  Te  Te2  1  0.00000000  0.50000000  0.65907113  1
  Te  Te3  1  0.50000000  0.00000000  0.34092887  1
  O  O4  1  0.00000000  0.00000000  0.00000000  1
  O  O5  1  0.50000000  0.50000000  0.00000000  1
