# generated using pymatgen
data_PdS2
_symmetry_space_group_name_H-M   'P 1'
_cell_length_a   5.53224859
_cell_length_b   5.61224878
_cell_length_c   7.55389253
_cell_angle_alpha   90.00000000
_cell_angle_beta   90.00000000
_cell_angle_gamma   90.00000000
_symmetry_Int_Tables_number   1
_chemical_formula_structural   PdS2
_chemical_formula_sum   'Pd4 S8'
_cell_volume   234.53593989
_cell_formula_units_Z   4
loop_
 _symmetry_equiv_pos_site_id
 _symmetry_equiv_pos_as_xyz
  1  'x, y, z'
loop_
 _atom_site_type_symbol
 _atom_site_label
 _atom_site_symmetry_multiplicity
 _atom_site_fract_x
 _atom_site_fract_y
 _atom_site_fract_z
 _atom_site_occupancy
  Pd  Pd0  1  0.50000000  0.00000000  0.50000000  1
  Pd  Pd1  1  0.00000000  0.50000000  0.50000000  1
  Pd  Pd2  1  0.50000000  0.50000000  0.00000000  1
  Pd  Pd3  1  0.00000000  0.00000000  0.00000000  1
  S  S4  1  0.60456952  0.10994738  0.08291119  1
  S  S5  1  0.10456952  0.39005262  0.91708881  1
  S  S6  1  0.39543048  0.60994738  0.41708881  1
  S  S7  1  0.89543048  0.89005262  0.58291119  1
  S  S8  1  0.10456952  0.10994738  0.41708881  1
  S  S9  1  0.60456952  0.39005262  0.58291119  1
  S  S10  1  0.89543048  0.60994738  0.08291119  1
  S  S11  1  0.39543048  0.89005262  0.91708881  1
