# generated using pymatgen
data_MoSe2
_symmetry_space_group_name_H-M   'P 1'
_cell_length_a   6.84111363
_cell_length_b   6.84111387
_cell_length_c   6.84111343
_cell_angle_alpha   28.18722520
_cell_angle_beta   28.18722129
_cell_angle_gamma   28.18722716
_symmetry_Int_Tables_number   1
_chemical_formula_structural   MoSe2
_chemical_formula_sum   'Mo1 Se2'
_cell_volume   63.11157203
_cell_formula_units_Z   1
loop_
 _symmetry_equiv_pos_site_id
 _symmetry_equiv_pos_as_xyz
  1  'x, y, z'
loop_
 _atom_site_type_symbol
 _atom_site_label
 _atom_site_symmetry_multiplicity
 _atom_site_fract_x
 _atom_site_fract_y
 _atom_site_fract_z
 _atom_site_occupancy
  Mo  Mo0  1  0.33319614  0.33319614  0.33319614  1
  Se  Se1  1  0.58169878  0.58169878  0.58169878  1
  Se  Se2  1  0.75143807  0.75143807  0.75143807  1
