# generated using pymatgen
data_Al2Os
_symmetry_space_group_name_H-M   'P 1'
_cell_length_a   3.19526570
_cell_length_b   3.19526590
_cell_length_c   4.74470769
_cell_angle_alpha   109.67709484
_cell_angle_beta   109.67710291
_cell_angle_gamma   90.00000409
_symmetry_Int_Tables_number   1
_chemical_formula_structural   Al2Os
_chemical_formula_sum   'Al2 Os1'
_cell_volume   42.59717514
_cell_formula_units_Z   1
loop_
 _symmetry_equiv_pos_site_id
 _symmetry_equiv_pos_as_xyz
  1  'x, y, z'
loop_
 _atom_site_type_symbol
 _atom_site_label
 _atom_site_symmetry_multiplicity
 _atom_site_fract_x
 _atom_site_fract_y
 _atom_site_fract_z
 _atom_site_occupancy
  Al  Al0  1  0.33848928  0.33848928  0.67697956  1
  Al  Al1  1  0.66151072  0.66151072  0.32302044  1
  Os  Os2  1  0.00000000  0.00000000  0.00000000  1
