# generated using pymatgen
data_TiBrO
_symmetry_space_group_name_H-M   'P 1'
_cell_length_a   3.38031847
_cell_length_b   4.04353684
_cell_length_c   7.99312982
_cell_angle_alpha   90.00000000
_cell_angle_beta   90.00000000
_cell_angle_gamma   90.00000000
_symmetry_Int_Tables_number   1
_chemical_formula_structural   TiBrO
_chemical_formula_sum   'Ti2 Br2 O2'
_cell_volume   109.25363345
_cell_formula_units_Z   2
loop_
 _symmetry_equiv_pos_site_id
 _symmetry_equiv_pos_as_xyz
  1  'x, y, z'
loop_
 _atom_site_type_symbol
 _atom_site_label
 _atom_site_symmetry_multiplicity
 _atom_site_fract_x
 _atom_site_fract_y
 _atom_site_fract_z
 _atom_site_occupancy
  Ti  Ti0  1  0.25000000  0.75000000  0.91929364  1
  Ti  Ti1  1  0.75000000  0.25000000  0.08070636  1
  Br  Br2  1  0.75000000  0.75000000  0.67440496  1
  Br  Br3  1  0.25000000  0.25000000  0.32559504  1
  O  O4  1  0.25000000  0.25000000  0.93210446  1
  O  O5  1  0.75000000  0.75000000  0.06789554  1
