# generated using pymatgen
data_MgBr2
_symmetry_space_group_name_H-M   'P 1'
_cell_length_a   3.84584894
_cell_length_b   3.84584894
_cell_length_c   6.23698442
_cell_angle_alpha   90.00000000
_cell_angle_beta   90.00000000
_cell_angle_gamma   120.00000116
_symmetry_Int_Tables_number   1
_chemical_formula_structural   MgBr2
_chemical_formula_sum   'Mg1 Br2'
_cell_volume   79.88950503
_cell_formula_units_Z   1
loop_
 _symmetry_equiv_pos_site_id
 _symmetry_equiv_pos_as_xyz
  1  'x, y, z'
loop_
 _atom_site_type_symbol
 _atom_site_label
 _atom_site_symmetry_multiplicity
 _atom_site_fract_x
 _atom_site_fract_y
 _atom_site_fract_z
 _atom_site_occupancy
  Mg  Mg0  1  0.00000000  0.00000000  0.00000000  1
  Br  Br1  1  0.33333300  0.66666700  0.24090431  1
  Br  Br2  1  0.66666700  0.33333300  0.75909569  1
