# generated using pymatgen
data_Na2Cl
_symmetry_space_group_name_H-M   'P 1'
_cell_length_a   3.86882608
_cell_length_b   3.86882608
_cell_length_c   7.00135031
_cell_angle_alpha   73.96100420
_cell_angle_beta   73.96100420
_cell_angle_gamma   59.99998934
_symmetry_Int_Tables_number   1
_chemical_formula_structural   Na2Cl
_chemical_formula_sum   'Na2 Cl1'
_cell_volume   86.01249015
_cell_formula_units_Z   1
loop_
 _symmetry_equiv_pos_site_id
 _symmetry_equiv_pos_as_xyz
  1  'x, y, z'
loop_
 _atom_site_type_symbol
 _atom_site_label
 _atom_site_symmetry_multiplicity
 _atom_site_fract_x
 _atom_site_fract_y
 _atom_site_fract_z
 _atom_site_occupancy
  Na  Na0  1  0.75292564  0.75292564  0.74122109  1
  Na  Na1  1  0.24707436  0.24707436  0.25877891  1
  Cl  Cl2  1  0.00000000  0.00000000  0.00000000  1
