# generated using pymatgen
data_TiSe2
_symmetry_space_group_name_H-M   'P 1'
_cell_length_a   3.54768652
_cell_length_b   3.54768652
_cell_length_c   6.06954143
_cell_angle_alpha   90.00000000
_cell_angle_beta   90.00000000
_cell_angle_gamma   120.00000114
_symmetry_Int_Tables_number   1
_chemical_formula_structural   TiSe2
_chemical_formula_sum   'Ti1 Se2'
_cell_volume   66.15717952
_cell_formula_units_Z   1
loop_
 _symmetry_equiv_pos_site_id
 _symmetry_equiv_pos_as_xyz
  1  'x, y, z'
loop_
 _atom_site_type_symbol
 _atom_site_label
 _atom_site_symmetry_multiplicity
 _atom_site_fract_x
 _atom_site_fract_y
 _atom_site_fract_z
 _atom_site_occupancy
  Ti  Ti0  1  0.00000000  0.00000000  0.00000000  1
  Se  Se1  1  0.33333300  0.66666700  0.25357907  1
  Se  Se2  1  0.66666700  0.33333300  0.74642093  1
