# generated using pymatgen
data_BiTeBr
_symmetry_space_group_name_H-M   'P 1'
_cell_length_a   4.32753216
_cell_length_b   4.32753216
_cell_length_c   6.58210373
_cell_angle_alpha   90.00000000
_cell_angle_beta   90.00000000
_cell_angle_gamma   119.99999861
_symmetry_Int_Tables_number   1
_chemical_formula_structural   BiTeBr
_chemical_formula_sum   'Bi1 Te1 Br1'
_cell_volume   106.75198733
_cell_formula_units_Z   1
loop_
 _symmetry_equiv_pos_site_id
 _symmetry_equiv_pos_as_xyz
  1  'x, y, z'
loop_
 _atom_site_type_symbol
 _atom_site_label
 _atom_site_symmetry_multiplicity
 _atom_site_fract_x
 _atom_site_fract_y
 _atom_site_fract_z
 _atom_site_occupancy
  Bi  Bi0  1  0.00000000  0.00000000  0.00663002  1
  Te  Te1  1  0.66666700  0.33333300  0.27328115  1
  Br  Br2  1  0.33333300  0.66666700  0.72008882  1
