# generated using pymatgen
data_Lu2CCl2
_symmetry_space_group_name_H-M   'P 1'
_cell_length_a   9.26972680
_cell_length_b   9.26972665
_cell_length_c   9.26972653
_cell_angle_alpha   22.34587946
_cell_angle_beta   22.34587875
_cell_angle_gamma   22.34587874
_symmetry_Int_Tables_number   1
_chemical_formula_structural   Lu2CCl2
_chemical_formula_sum   'Lu2 C1 Cl2'
_cell_volume   100.97561654
_cell_formula_units_Z   1
loop_
 _symmetry_equiv_pos_site_id
 _symmetry_equiv_pos_as_xyz
  1  'x, y, z'
loop_
 _atom_site_type_symbol
 _atom_site_label
 _atom_site_symmetry_multiplicity
 _atom_site_fract_x
 _atom_site_fract_y
 _atom_site_fract_z
 _atom_site_occupancy
  Lu  Lu0  1  0.88098055  0.88098055  0.88098055  1
  Lu  Lu1  1  0.11901945  0.11901945  0.11901945  1
  C  C2  1  0.50000000  0.50000000  0.50000000  1
  Cl  Cl3  1  0.27786583  0.27786583  0.27786583  1
  Cl  Cl4  1  0.72213417  0.72213417  0.72213417  1
