# generated using pymatgen
data_Mg3Au
_symmetry_space_group_name_H-M   'P 1'
_cell_length_a   4.60744418
_cell_length_b   4.60744418
_cell_length_c   9.51011456
_cell_angle_alpha   90.00000000
_cell_angle_beta   90.00000000
_cell_angle_gamma   119.99999013
_symmetry_Int_Tables_number   1
_chemical_formula_structural   Mg3Au
_chemical_formula_sum   'Mg6 Au2'
_cell_volume   174.83830545
_cell_formula_units_Z   2
loop_
 _symmetry_equiv_pos_site_id
 _symmetry_equiv_pos_as_xyz
  1  'x, y, z'
loop_
 _atom_site_type_symbol
 _atom_site_label
 _atom_site_symmetry_multiplicity
 _atom_site_fract_x
 _atom_site_fract_y
 _atom_site_fract_z
 _atom_site_occupancy
  Mg  Mg0  1  0.33333300  0.66666700  0.08995890  1
  Mg  Mg1  1  0.66666700  0.33333300  0.58995890  1
  Mg  Mg2  1  0.33333300  0.66666700  0.75000000  1
  Mg  Mg3  1  0.66666700  0.33333300  0.25000000  1
  Mg  Mg4  1  0.33333300  0.66666700  0.41004110  1
  Mg  Mg5  1  0.66666700  0.33333300  0.91004110  1
  Au  Au6  1  0.00000000  0.00000000  0.25000000  1
  Au  Au7  1  0.00000000  0.00000000  0.75000000  1
