# generated using pymatgen
data_VBrO
_symmetry_space_group_name_H-M   'P 1'
_cell_length_a   3.42943170
_cell_length_b   3.78813923
_cell_length_c   8.34525067
_cell_angle_alpha   90.00000000
_cell_angle_beta   90.00000000
_cell_angle_gamma   90.00000000
_symmetry_Int_Tables_number   1
_chemical_formula_structural   VBrO
_chemical_formula_sum   'V2 Br2 O2'
_cell_volume   108.41452656
_cell_formula_units_Z   2
loop_
 _symmetry_equiv_pos_site_id
 _symmetry_equiv_pos_as_xyz
  1  'x, y, z'
loop_
 _atom_site_type_symbol
 _atom_site_label
 _atom_site_symmetry_multiplicity
 _atom_site_fract_x
 _atom_site_fract_y
 _atom_site_fract_z
 _atom_site_occupancy
  V  V0  1  0.50000000  0.50000000  0.89439016  1
  V  V1  1  0.00000000  0.00000000  0.10560984  1
  Br  Br2  1  0.00000000  0.50000000  0.67382505  1
  Br  Br3  1  0.50000000  0.00000000  0.32617495  1
  O  O4  1  0.50000000  0.00000000  0.95658792  1
  O  O5  1  0.00000000  0.50000000  0.04341208  1
