# generated using pymatgen
data_PdSe2
_symmetry_space_group_name_H-M   'P 1'
_cell_length_a   5.87515875
_cell_length_b   5.98287238
_cell_length_c   7.53784900
_cell_angle_alpha   90.00000000
_cell_angle_beta   90.00000000
_cell_angle_gamma   90.00000000
_symmetry_Int_Tables_number   1
_chemical_formula_structural   PdSe2
_chemical_formula_sum   'Pd4 Se8'
_cell_volume   264.95784240
_cell_formula_units_Z   4
loop_
 _symmetry_equiv_pos_site_id
 _symmetry_equiv_pos_as_xyz
  1  'x, y, z'
loop_
 _atom_site_type_symbol
 _atom_site_label
 _atom_site_symmetry_multiplicity
 _atom_site_fract_x
 _atom_site_fract_y
 _atom_site_fract_z
 _atom_site_occupancy
  Pd  Pd0  1  0.50000000  0.00000000  0.50000000  1
  Pd  Pd1  1  0.00000000  0.50000000  0.50000000  1
  Pd  Pd2  1  0.50000000  0.50000000  0.00000000  1
  Pd  Pd3  1  0.00000000  0.00000000  0.00000000  1
  Se  Se4  1  0.61233762  0.11849168  0.09689036  1
  Se  Se5  1  0.11233762  0.38150832  0.90310964  1
  Se  Se6  1  0.38766238  0.61849168  0.40310964  1
  Se  Se7  1  0.88766238  0.88150832  0.59689036  1
  Se  Se8  1  0.11233762  0.11849168  0.40310964  1
  Se  Se9  1  0.61233762  0.38150832  0.59689036  1
  Se  Se10  1  0.88766238  0.61849168  0.09689036  1
  Se  Se11  1  0.38766238  0.88150832  0.90310964  1
