# generated using pymatgen
data_AgBiSCl2
_symmetry_space_group_name_H-M   'P 1'
_cell_length_a   4.03690679
_cell_length_b   7.18985197
_cell_length_c   8.72961382
_cell_angle_alpha   90.00000000
_cell_angle_beta   90.00000000
_cell_angle_gamma   106.30415831
_symmetry_Int_Tables_number   1
_chemical_formula_structural   AgBiSCl2
_chemical_formula_sum   'Ag2 Bi2 S2 Cl4'
_cell_volume   243.18547077
_cell_formula_units_Z   2
loop_
 _symmetry_equiv_pos_site_id
 _symmetry_equiv_pos_as_xyz
  1  'x, y, z'
loop_
 _atom_site_type_symbol
 _atom_site_label
 _atom_site_symmetry_multiplicity
 _atom_site_fract_x
 _atom_site_fract_y
 _atom_site_fract_z
 _atom_site_occupancy
  Ag  Ag0  1  0.00000000  0.00000000  0.50000000  1
  Ag  Ag1  1  0.00000000  0.00000000  0.00000000  1
  Bi  Bi2  1  0.28755507  0.57511014  0.75000000  1
  Bi  Bi3  1  0.71244493  0.42488986  0.25000000  1
  S  S4  1  0.91906228  0.83812357  0.75000000  1
  S  S5  1  0.08093772  0.16187643  0.25000000  1
  Cl  Cl6  1  0.65820960  0.31641821  0.56436536  1
  Cl  Cl7  1  0.34179040  0.68358179  0.43563464  1
  Cl  Cl8  1  0.34179040  0.68358179  0.06436536  1
  Cl  Cl9  1  0.65820960  0.31641821  0.93563464  1
