# generated using pymatgen
data_WSe2
_symmetry_space_group_name_H-M   'P 1'
_cell_length_a   3.32867721
_cell_length_b   3.32867721
_cell_length_c   13.23173478
_cell_angle_alpha   90.00000000
_cell_angle_beta   90.00000000
_cell_angle_gamma   119.99998036
_symmetry_Int_Tables_number   1
_chemical_formula_structural   WSe2
_chemical_formula_sum   'W2 Se4'
_cell_volume   126.96700390
_cell_formula_units_Z   2
loop_
 _symmetry_equiv_pos_site_id
 _symmetry_equiv_pos_as_xyz
  1  'x, y, z'
loop_
 _atom_site_type_symbol
 _atom_site_label
 _atom_site_symmetry_multiplicity
 _atom_site_fract_x
 _atom_site_fract_y
 _atom_site_fract_z
 _atom_site_occupancy
  W  W0  1  0.66666700  0.33333300  0.25000000  1
  W  W1  1  0.33333300  0.66666700  0.75000000  1
  Se  Se2  1  0.33333300  0.66666700  0.12287496  1
  Se  Se3  1  0.66666700  0.33333300  0.62287496  1
  Se  Se4  1  0.33333300  0.66666700  0.37712504  1
  Se  Se5  1  0.66666700  0.33333300  0.87712504  1
