# generated using pymatgen
data_ZrSiSe
_symmetry_space_group_name_H-M   'P 1'
_cell_length_a   3.64865439
_cell_length_b   3.64865439
_cell_length_c   8.50216903
_cell_angle_alpha   90.00000000
_cell_angle_beta   90.00000000
_cell_angle_gamma   90.00000000
_symmetry_Int_Tables_number   1
_chemical_formula_structural   ZrSiSe
_chemical_formula_sum   'Zr2 Si2 Se2'
_cell_volume   113.18664590
_cell_formula_units_Z   2
loop_
 _symmetry_equiv_pos_site_id
 _symmetry_equiv_pos_as_xyz
  1  'x, y, z'
loop_
 _atom_site_type_symbol
 _atom_site_label
 _atom_site_symmetry_multiplicity
 _atom_site_fract_x
 _atom_site_fract_y
 _atom_site_fract_z
 _atom_site_occupancy
  Zr  Zr0  1  0.50000000  0.00000000  0.74485285  1
  Zr  Zr1  1  0.00000000  0.50000000  0.25514715  1
  Si  Si2  1  0.50000000  0.50000000  0.00000000  1
  Si  Si3  1  0.00000000  0.00000000  0.00000000  1
  Se  Se4  1  0.00000000  0.50000000  0.62461644  1
  Se  Se5  1  0.50000000  0.00000000  0.37538356  1
