# generated using pymatgen
data_HfBrN
_symmetry_space_group_name_H-M   'P 1'
_cell_length_a   3.57140225
_cell_length_b   4.11414121
_cell_length_c   8.66917502
_cell_angle_alpha   90.00000000
_cell_angle_beta   90.00000000
_cell_angle_gamma   90.00000000
_symmetry_Int_Tables_number   1
_chemical_formula_structural   HfBrN
_chemical_formula_sum   'Hf2 Br2 N2'
_cell_volume   127.37838305
_cell_formula_units_Z   2
loop_
 _symmetry_equiv_pos_site_id
 _symmetry_equiv_pos_as_xyz
  1  'x, y, z'
loop_
 _atom_site_type_symbol
 _atom_site_label
 _atom_site_symmetry_multiplicity
 _atom_site_fract_x
 _atom_site_fract_y
 _atom_site_fract_z
 _atom_site_occupancy
  Hf  Hf0  1  0.75000000  0.25000000  0.09980672  1
  Hf  Hf1  1  0.25000000  0.75000000  0.90019328  1
  Br  Br2  1  0.75000000  0.75000000  0.66081975  1
  Br  Br3  1  0.25000000  0.25000000  0.33918025  1
  N  N4  1  0.75000000  0.75000000  0.03537606  1
  N  N5  1  0.25000000  0.25000000  0.96462394  1
