# generated using pymatgen
data_SbTe
_symmetry_space_group_name_H-M   'P 1'
_cell_length_a   4.35854895
_cell_length_b   4.35854895
_cell_length_c   24.25605001
_cell_angle_alpha   90.00000000
_cell_angle_beta   90.00000000
_cell_angle_gamma   120.00000817
_symmetry_Int_Tables_number   1
_chemical_formula_structural   SbTe
_chemical_formula_sum   'Sb6 Te6'
_cell_volume   399.05663038
_cell_formula_units_Z   6
loop_
 _symmetry_equiv_pos_site_id
 _symmetry_equiv_pos_as_xyz
  1  'x, y, z'
loop_
 _atom_site_type_symbol
 _atom_site_label
 _atom_site_symmetry_multiplicity
 _atom_site_fract_x
 _atom_site_fract_y
 _atom_site_fract_z
 _atom_site_occupancy
  Sb  Sb0  1  0.00000000  0.00000000  0.87204730  1
  Sb  Sb1  1  0.00000000  0.00000000  0.12795270  1
  Sb  Sb2  1  0.33333300  0.66666700  0.70807779  1
  Sb  Sb3  1  0.66666700  0.33333300  0.29192221  1
  Sb  Sb4  1  0.33333300  0.66666700  0.46793758  1
  Sb  Sb5  1  0.66666700  0.33333300  0.53206242  1
  Te  Te6  1  0.33333300  0.66666700  0.94237252  1
  Te  Te7  1  0.66666700  0.33333300  0.05762748  1
  Te  Te8  1  0.33333300  0.66666700  0.21024114  1
  Te  Te9  1  0.66666700  0.33333300  0.78975886  1
  Te  Te10  1  0.00000000  0.00000000  0.63730020  1
  Te  Te11  1  0.00000000  0.00000000  0.36269980  1
