# generated using pymatgen
data_TbBr
_symmetry_space_group_name_H-M   'P 1'
_cell_length_a   10.02868347
_cell_length_b   10.02868333
_cell_length_c   10.02868321
_cell_angle_alpha   21.86806316
_cell_angle_beta   21.86806597
_cell_angle_gamma   21.86806568
_symmetry_Int_Tables_number   1
_chemical_formula_structural   TbBr
_chemical_formula_sum   'Tb2 Br2'
_cell_volume   122.65479886
_cell_formula_units_Z   2
loop_
 _symmetry_equiv_pos_site_id
 _symmetry_equiv_pos_as_xyz
  1  'x, y, z'
loop_
 _atom_site_type_symbol
 _atom_site_label
 _atom_site_symmetry_multiplicity
 _atom_site_fract_x
 _atom_site_fract_y
 _atom_site_fract_z
 _atom_site_occupancy
  Tb  Tb0  1  0.88052474  0.88052474  0.88052474  1
  Tb  Tb1  1  0.11947526  0.11947526  0.11947526  1
  Br  Br2  1  0.61268924  0.61268924  0.61268924  1
  Br  Br3  1  0.38731076  0.38731076  0.38731076  1
