# generated using pymatgen
data_Te2Pd
_symmetry_space_group_name_H-M   'P 1'
_cell_length_a   4.09145917
_cell_length_b   4.09145917
_cell_length_c   5.25350078
_cell_angle_alpha   90.00000000
_cell_angle_beta   90.00000000
_cell_angle_gamma   119.99999887
_symmetry_Int_Tables_number   1
_chemical_formula_structural   Te2Pd
_chemical_formula_sum   'Te2 Pd1'
_cell_volume   76.16156867
_cell_formula_units_Z   1
loop_
 _symmetry_equiv_pos_site_id
 _symmetry_equiv_pos_as_xyz
  1  'x, y, z'
loop_
 _atom_site_type_symbol
 _atom_site_label
 _atom_site_symmetry_multiplicity
 _atom_site_fract_x
 _atom_site_fract_y
 _atom_site_fract_z
 _atom_site_occupancy
  Te  Te0  1  0.33333300  0.66666700  0.73540934  1
  Te  Te1  1  0.66666700  0.33333300  0.26459066  1
  Pd  Pd2  1  0.00000000  0.00000000  0.00000000  1
