# generated using pymatgen
data_CuBiO2
_symmetry_space_group_name_H-M   'P 1'
_cell_length_a   6.14063764
_cell_length_b   3.62977072
_cell_length_c   6.63776555
_cell_angle_alpha   90.00000000
_cell_angle_beta   116.26864661
_cell_angle_gamma   90.00000000
_symmetry_Int_Tables_number   1
_chemical_formula_structural   CuBiO2
_chemical_formula_sum   'Cu2 Bi2 O4'
_cell_volume   132.67089756
_cell_formula_units_Z   2
loop_
 _symmetry_equiv_pos_site_id
 _symmetry_equiv_pos_as_xyz
  1  'x, y, z'
loop_
 _atom_site_type_symbol
 _atom_site_label
 _atom_site_symmetry_multiplicity
 _atom_site_fract_x
 _atom_site_fract_y
 _atom_site_fract_z
 _atom_site_occupancy
  Cu  Cu0  1  0.02890831  0.25000000  0.66937187  1
  Cu  Cu1  1  0.97109169  0.75000000  0.33062813  1
  Bi  Bi2  1  0.42518328  0.25000000  0.23106429  1
  Bi  Bi3  1  0.57481672  0.75000000  0.76893571  1
  O  O4  1  0.36291884  0.25000000  0.80526403  1
  O  O5  1  0.29841705  0.75000000  0.41193865  1
  O  O6  1  0.70158295  0.25000000  0.58806135  1
  O  O7  1  0.63708116  0.75000000  0.19473597  1
