# generated using pymatgen
data_TmIO
_symmetry_space_group_name_H-M   'P 1'
_cell_length_a   3.87308705
_cell_length_b   3.87308705
_cell_length_c   9.20486060
_cell_angle_alpha   90.00000000
_cell_angle_beta   90.00000000
_cell_angle_gamma   90.00000000
_symmetry_Int_Tables_number   1
_chemical_formula_structural   TmIO
_chemical_formula_sum   'Tm2 I2 O2'
_cell_volume   138.08030324
_cell_formula_units_Z   2
loop_
 _symmetry_equiv_pos_site_id
 _symmetry_equiv_pos_as_xyz
  1  'x, y, z'
loop_
 _atom_site_type_symbol
 _atom_site_label
 _atom_site_symmetry_multiplicity
 _atom_site_fract_x
 _atom_site_fract_y
 _atom_site_fract_z
 _atom_site_occupancy
  Tm  Tm0  1  0.50000000  0.00000000  0.11641223  1
  Tm  Tm1  1  0.00000000  0.50000000  0.88358777  1
  I  I2  1  0.50000000  0.00000000  0.67809932  1
  I  I3  1  0.00000000  0.50000000  0.32190068  1
  O  O4  1  0.50000000  0.50000000  0.00000000  1
  O  O5  1  0.00000000  0.00000000  0.00000000  1
