# generated using pymatgen
data_ZrFeCl6
_symmetry_space_group_name_H-M   'P 1'
_cell_length_a   6.22762943
_cell_length_b   6.22762943
_cell_length_c   11.71357447
_cell_angle_alpha   90.00000000
_cell_angle_beta   90.00000000
_cell_angle_gamma   120.00000079
_symmetry_Int_Tables_number   1
_chemical_formula_structural   ZrFeCl6
_chemical_formula_sum   'Zr2 Fe2 Cl12'
_cell_volume   393.42829997
_cell_formula_units_Z   2
loop_
 _symmetry_equiv_pos_site_id
 _symmetry_equiv_pos_as_xyz
  1  'x, y, z'
loop_
 _atom_site_type_symbol
 _atom_site_label
 _atom_site_symmetry_multiplicity
 _atom_site_fract_x
 _atom_site_fract_y
 _atom_site_fract_z
 _atom_site_occupancy
  Zr  Zr0  1  0.33333300  0.66666700  0.75000000  1
  Zr  Zr1  1  0.66666700  0.33333300  0.25000000  1
  Fe  Fe2  1  0.00000000  0.00000000  0.75000000  1
  Fe  Fe3  1  0.00000000  0.00000000  0.25000000  1
  Cl  Cl4  1  0.01384623  0.33114670  0.87136336  1
  Cl  Cl5  1  0.31730047  0.98615377  0.87136336  1
  Cl  Cl6  1  0.66885330  0.68269953  0.87136336  1
  Cl  Cl7  1  0.66885330  0.98615377  0.62863664  1
  Cl  Cl8  1  0.68269953  0.66885330  0.37136336  1
  Cl  Cl9  1  0.98615377  0.31730047  0.37136336  1
  Cl  Cl10  1  0.33114670  0.01384623  0.37136336  1
  Cl  Cl11  1  0.33114670  0.31730047  0.12863664  1
  Cl  Cl12  1  0.68269953  0.01384623  0.12863664  1
  Cl  Cl13  1  0.98615377  0.66885330  0.12863664  1
  Cl  Cl14  1  0.31730047  0.33114670  0.62863664  1
  Cl  Cl15  1  0.01384623  0.68269953  0.62863664  1
