# generated using pymatgen
data_CoS2
_symmetry_space_group_name_H-M   'P 1'
_cell_length_a   5.30294270
_cell_length_b   5.30294243
_cell_length_c   5.30294260
_cell_angle_alpha   37.48312966
_cell_angle_beta   37.48314092
_cell_angle_gamma   37.48313254
_symmetry_Int_Tables_number   1
_chemical_formula_structural   CoS2
_chemical_formula_sum   'Co1 S2'
_cell_volume   49.52290803
_cell_formula_units_Z   1
loop_
 _symmetry_equiv_pos_site_id
 _symmetry_equiv_pos_as_xyz
  1  'x, y, z'
loop_
 _atom_site_type_symbol
 _atom_site_label
 _atom_site_symmetry_multiplicity
 _atom_site_fract_x
 _atom_site_fract_y
 _atom_site_fract_z
 _atom_site_occupancy
  Co  Co0  1  0.00000000  0.00000000  0.00000000  1
  S  S1  1  0.59227200  0.59227200  0.59227200  1
  S  S2  1  0.40772800  0.40772800  0.40772800  1
