# generated using pymatgen
data_AgF2
_symmetry_space_group_name_H-M   'P 1'
_cell_length_a   3.83027870
_cell_length_b   5.19493794
_cell_length_c   5.80569743
_cell_angle_alpha   90.00000000
_cell_angle_beta   130.18738556
_cell_angle_gamma   90.00000000
_symmetry_Int_Tables_number   1
_chemical_formula_structural   AgF2
_chemical_formula_sum   'Ag2 F4'
_cell_volume   88.25174818
_cell_formula_units_Z   2
loop_
 _symmetry_equiv_pos_site_id
 _symmetry_equiv_pos_as_xyz
  1  'x, y, z'
loop_
 _atom_site_type_symbol
 _atom_site_label
 _atom_site_symmetry_multiplicity
 _atom_site_fract_x
 _atom_site_fract_y
 _atom_site_fract_z
 _atom_site_occupancy
  Ag  Ag0  1  0.50000000  0.50000000  0.50000000  1
  Ag  Ag1  1  0.50000000  0.00000000  0.00000000  1
  F  F2  1  0.76914340  0.76252508  0.85275961  1
  F  F3  1  0.23085660  0.26252508  0.64724039  1
  F  F4  1  0.76914340  0.73747492  0.35275961  1
  F  F5  1  0.23085660  0.23747492  0.14724039  1
