# generated using pymatgen
data_ZrN2
_symmetry_space_group_name_H-M   'P 1'
_cell_length_a   3.43323057
_cell_length_b   3.57270301
_cell_length_c   4.45057864
_cell_angle_alpha   89.99999794
_cell_angle_beta   126.08197485
_cell_angle_gamma   121.35318757
_symmetry_Int_Tables_number   1
_chemical_formula_structural   ZrN2
_chemical_formula_sum   'Zr1 N2'
_cell_volume   33.75888519
_cell_formula_units_Z   1
loop_
 _symmetry_equiv_pos_site_id
 _symmetry_equiv_pos_as_xyz
  1  'x, y, z'
loop_
 _atom_site_type_symbol
 _atom_site_label
 _atom_site_symmetry_multiplicity
 _atom_site_fract_x
 _atom_site_fract_y
 _atom_site_fract_z
 _atom_site_occupancy
  Zr  Zr0  1  0.00000000  0.00000000  0.00000000  1
  N  N1  1  0.34477135  0.17238567  0.67811974  1
  N  N2  1  0.65522865  0.82761433  0.32188026  1
