# generated using pymatgen
data_YSb2
_symmetry_space_group_name_H-M   'P 1'
_cell_length_a   3.55799843
_cell_length_b   3.67729038
_cell_length_c   7.62143157
_cell_angle_alpha   90.00000000
_cell_angle_beta   90.00000000
_cell_angle_gamma   118.93256645
_symmetry_Int_Tables_number   1
_chemical_formula_structural   YSb2
_chemical_formula_sum   'Y1 Sb2'
_cell_volume   87.27149715
_cell_formula_units_Z   1
loop_
 _symmetry_equiv_pos_site_id
 _symmetry_equiv_pos_as_xyz
  1  'x, y, z'
loop_
 _atom_site_type_symbol
 _atom_site_label
 _atom_site_symmetry_multiplicity
 _atom_site_fract_x
 _atom_site_fract_y
 _atom_site_fract_z
 _atom_site_occupancy
  Y  Y0  1  0.00000000  0.00000000  0.00000000  1
  Sb  Sb1  1  0.00000000  0.50000000  0.68160230  1
  Sb  Sb2  1  0.50000000  0.50000000  0.31839770  1
