# generated using pymatgen
data_TiO2
_symmetry_space_group_name_H-M   'P 1'
_cell_length_a   3.39008889
_cell_length_b   3.39008889
_cell_length_c   10.69045800
_cell_angle_alpha   90.00000000
_cell_angle_beta   90.00000000
_cell_angle_gamma   120.00000442
_symmetry_Int_Tables_number   1
_chemical_formula_structural   TiO2
_chemical_formula_sum   'Ti2 O4'
_cell_volume   106.40182941
_cell_formula_units_Z   2
loop_
 _symmetry_equiv_pos_site_id
 _symmetry_equiv_pos_as_xyz
  1  'x, y, z'
loop_
 _atom_site_type_symbol
 _atom_site_label
 _atom_site_symmetry_multiplicity
 _atom_site_fract_x
 _atom_site_fract_y
 _atom_site_fract_z
 _atom_site_occupancy
  Ti  Ti0  1  0.66666700  0.33333300  0.25000000  1
  Ti  Ti1  1  0.33333300  0.66666700  0.75000000  1
  O  O2  1  0.33333300  0.66666700  0.58850008  1
  O  O3  1  0.66666700  0.33333300  0.08850008  1
  O  O4  1  0.33333300  0.66666700  0.91149992  1
  O  O5  1  0.66666700  0.33333300  0.41149992  1
