# generated using pymatgen
data_P
_symmetry_space_group_name_H-M   'P 1'
_cell_length_a   3.83716857
_cell_length_b   3.83716816
_cell_length_c   3.83716867
_cell_angle_alpha   54.15459908
_cell_angle_beta   54.15460345
_cell_angle_gamma   54.15459153
_symmetry_Int_Tables_number   1
_chemical_formula_structural   P
_chemical_formula_sum   P2
_cell_volume   34.49865010
_cell_formula_units_Z   2
loop_
 _symmetry_equiv_pos_site_id
 _symmetry_equiv_pos_as_xyz
  1  'x, y, z'
loop_
 _atom_site_type_symbol
 _atom_site_label
 _atom_site_symmetry_multiplicity
 _atom_site_fract_x
 _atom_site_fract_y
 _atom_site_fract_z
 _atom_site_occupancy
  P  P0  1  0.22551963  0.22551963  0.22551963  1
  P  P1  1  0.77448037  0.77448037  0.77448037  1
