# generated using pymatgen
data_Ga
_symmetry_space_group_name_H-M   'P 1'
_cell_length_a   2.79588903
_cell_length_b   3.42352335
_cell_length_c   4.27691923
_cell_angle_alpha   90.00000000
_cell_angle_beta   109.07817602
_cell_angle_gamma   90.00000000
_symmetry_Int_Tables_number   1
_chemical_formula_structural   Ga
_chemical_formula_sum   Ga2
_cell_volume   38.68920884
_cell_formula_units_Z   2
loop_
 _symmetry_equiv_pos_site_id
 _symmetry_equiv_pos_as_xyz
  1  'x, y, z'
loop_
 _atom_site_type_symbol
 _atom_site_label
 _atom_site_symmetry_multiplicity
 _atom_site_fract_x
 _atom_site_fract_y
 _atom_site_fract_z
 _atom_site_occupancy
  Ga  Ga0  1  0.86675260  0.25000000  0.73350620  1
  Ga  Ga1  1  0.13324740  0.75000000  0.26649380  1
