# generated using pymatgen
data_SiS
_symmetry_space_group_name_H-M   'P 1'
_cell_length_a   3.95876108
_cell_length_b   6.65592809
_cell_length_c   23.94045080
_cell_angle_alpha   90.00000000
_cell_angle_beta   90.00000000
_cell_angle_gamma   90.00000000
_symmetry_Int_Tables_number   1
_chemical_formula_structural   SiS
_chemical_formula_sum   'Si4 S4'
_cell_volume   630.81242264
_cell_formula_units_Z   4
loop_
 _symmetry_equiv_pos_site_id
 _symmetry_equiv_pos_as_xyz
  1  'x, y, z'
loop_
 _atom_site_type_symbol
 _atom_site_label
 _atom_site_symmetry_multiplicity
 _atom_site_fract_x
 _atom_site_fract_y
 _atom_site_fract_z
 _atom_site_occupancy
  Si  Si0  1  0.00000000  0.00000000  0.52172636  1
  Si  Si1  1  0.00000000  0.50000000  0.52172636  1
  Si  Si2  1  0.50000000  0.00000000  0.46618433  1
  Si  Si3  1  0.50000000  0.50000000  0.46618433  1
  S  S4  1  0.05249006  0.75000000  0.57927516  1
  S  S5  1  0.94750994  0.25000000  0.57927516  1
  S  S6  1  0.44748679  0.75000000  0.40863414  1
  S  S7  1  0.55251321  0.25000000  0.40863414  1
