# generated using pymatgen
data_GaSe
_symmetry_space_group_name_H-M   'P 1'
_cell_length_a   8.32906063
_cell_length_b   8.32906087
_cell_length_c   8.32906084
_cell_angle_alpha   26.43011646
_cell_angle_beta   26.43011009
_cell_angle_gamma   26.43011428
_symmetry_Int_Tables_number   1
_chemical_formula_structural   GaSe
_chemical_formula_sum   'Ga2 Se2'
_cell_volume   100.89566854
_cell_formula_units_Z   2
loop_
 _symmetry_equiv_pos_site_id
 _symmetry_equiv_pos_as_xyz
  1  'x, y, z'
loop_
 _atom_site_type_symbol
 _atom_site_label
 _atom_site_symmetry_multiplicity
 _atom_site_fract_x
 _atom_site_fract_y
 _atom_site_fract_z
 _atom_site_occupancy
  Ga  Ga0  1  0.05111925  0.05111925  0.05111925  1
  Ga  Ga1  1  0.94925090  0.94925090  0.94925090  1
  Se  Se2  1  0.76634311  0.76634311  0.76634311  1
  Se  Se3  1  0.56728674  0.56728674  0.56728674  1
