# generated using pymatgen
data_CdI2
_symmetry_space_group_name_H-M   'P 1'
_cell_length_a   4.28525892
_cell_length_b   4.28525892
_cell_length_c   13.75083667
_cell_angle_alpha   90.00000000
_cell_angle_beta   90.00000000
_cell_angle_gamma   119.99998637
_symmetry_Int_Tables_number   1
_chemical_formula_structural   CdI2
_chemical_formula_sum   'Cd2 I4'
_cell_volume   218.68245983
_cell_formula_units_Z   2
loop_
 _symmetry_equiv_pos_site_id
 _symmetry_equiv_pos_as_xyz
  1  'x, y, z'
loop_
 _atom_site_type_symbol
 _atom_site_label
 _atom_site_symmetry_multiplicity
 _atom_site_fract_x
 _atom_site_fract_y
 _atom_site_fract_z
 _atom_site_occupancy
  Cd  Cd0  1  0.66666700  0.33333300  0.50006227  1
  Cd  Cd1  1  0.33333300  0.66666700  0.00006227  1
  I  I2  1  0.00000000  0.00000000  0.37385629  1
  I  I3  1  0.00000000  0.00000000  0.87385629  1
  I  I4  1  0.33333300  0.66666700  0.62608144  1
  I  I5  1  0.66666700  0.33333300  0.12608144  1
