# generated using pymatgen
data_TiIN
_symmetry_space_group_name_H-M   'P 1'
_cell_length_a   3.53681722
_cell_length_b   3.96485931
_cell_length_c   9.06172789
_cell_angle_alpha   90.00000000
_cell_angle_beta   90.00000000
_cell_angle_gamma   90.00000000
_symmetry_Int_Tables_number   1
_chemical_formula_structural   TiIN
_chemical_formula_sum   'Ti2 I2 N2'
_cell_volume   127.07245300
_cell_formula_units_Z   2
loop_
 _symmetry_equiv_pos_site_id
 _symmetry_equiv_pos_as_xyz
  1  'x, y, z'
loop_
 _atom_site_type_symbol
 _atom_site_label
 _atom_site_symmetry_multiplicity
 _atom_site_fract_x
 _atom_site_fract_y
 _atom_site_fract_z
 _atom_site_occupancy
  Ti  Ti0  1  0.00000000  0.50000000  0.92306420  1
  Ti  Ti1  1  0.50000000  0.00000000  0.07693580  1
  I  I2  1  0.50000000  0.50000000  0.68007808  1
  I  I3  1  0.00000000  0.00000000  0.31992192  1
  N  N4  1  0.00000000  0.00000000  0.96437052  1
  N  N5  1  0.50000000  0.50000000  0.03562948  1
