# generated using pymatgen
data_Li2WS4
_symmetry_space_group_name_H-M   'P 1'
_cell_length_a   6.02644412
_cell_length_b   6.02644412
_cell_length_c   6.33798652
_cell_angle_alpha   61.61313884
_cell_angle_beta   61.61313884
_cell_angle_gamma   90.00000000
_symmetry_Int_Tables_number   1
_chemical_formula_structural   Li2WS4
_chemical_formula_sum   'Li2 W1 S4'
_cell_volume   170.38950056
_cell_formula_units_Z   1
loop_
 _symmetry_equiv_pos_site_id
 _symmetry_equiv_pos_as_xyz
  1  'x, y, z'
loop_
 _atom_site_type_symbol
 _atom_site_label
 _atom_site_symmetry_multiplicity
 _atom_site_fract_x
 _atom_site_fract_y
 _atom_site_fract_z
 _atom_site_occupancy
  Li  Li0  1  0.50000000  0.00000000  0.00000000  1
  Li  Li1  1  0.00000000  0.50000000  0.00000000  1
  W  W2  1  0.00000000  0.00000000  0.00000000  1
  S  S3  1  0.65291229  0.08365263  0.26343407  1
  S  S4  1  0.34708771  0.34708771  0.73656593  1
  S  S5  1  0.08365263  0.65291229  0.26343407  1
  S  S6  1  0.91634737  0.91634737  0.73656593  1
