# generated using pymatgen
data_Sn(SbTe2)2
_symmetry_space_group_name_H-M   'P 1'
_cell_length_a   14.16197091
_cell_length_b   14.16197090
_cell_length_c   14.16197090
_cell_angle_alpha   17.86888216
_cell_angle_beta   17.86888356
_cell_angle_gamma   17.86888252
_symmetry_Int_Tables_number   1
_chemical_formula_structural   Sn(SbTe2)2
_chemical_formula_sum   'Sn1 Sb2 Te4'
_cell_volume   233.46956907
_cell_formula_units_Z   1
loop_
 _symmetry_equiv_pos_site_id
 _symmetry_equiv_pos_as_xyz
  1  'x, y, z'
loop_
 _atom_site_type_symbol
 _atom_site_label
 _atom_site_symmetry_multiplicity
 _atom_site_fract_x
 _atom_site_fract_y
 _atom_site_fract_z
 _atom_site_occupancy
  Sn  Sn0  1  0.00000000  0.00000000  0.00000000  1
  Sb  Sb1  1  0.42671477  0.42671477  0.42671477  1
  Sb  Sb2  1  0.57328523  0.57328523  0.57328523  1
  Te  Te3  1  0.13346666  0.13346666  0.13346666  1
  Te  Te4  1  0.86653334  0.86653334  0.86653334  1
  Te  Te5  1  0.28766750  0.28766750  0.28766750  1
  Te  Te6  1  0.71233250  0.71233250  0.71233250  1
