# generated using pymatgen
data_Li2CeAs2
_symmetry_space_group_name_H-M   'P 1'
_cell_length_a   4.24749366
_cell_length_b   4.24749366
_cell_length_c   6.84251206
_cell_angle_alpha   90.00000000
_cell_angle_beta   90.00000000
_cell_angle_gamma   120.00000622
_symmetry_Int_Tables_number   1
_chemical_formula_structural   Li2CeAs2
_chemical_formula_sum   'Li2 Ce1 As2'
_cell_volume   106.90835695
_cell_formula_units_Z   1
loop_
 _symmetry_equiv_pos_site_id
 _symmetry_equiv_pos_as_xyz
  1  'x, y, z'
loop_
 _atom_site_type_symbol
 _atom_site_label
 _atom_site_symmetry_multiplicity
 _atom_site_fract_x
 _atom_site_fract_y
 _atom_site_fract_z
 _atom_site_occupancy
  Li  Li0  1  0.66666700  0.33333300  0.62308892  1
  Li  Li1  1  0.33333300  0.66666700  0.37691108  1
  Ce  Ce2  1  0.00000000  0.00000000  0.00000000  1
  As  As3  1  0.66666700  0.33333300  0.23437398  1
  As  As4  1  0.33333300  0.66666700  0.76562602  1
