# generated using pymatgen
data_HfFeCl6
_symmetry_space_group_name_H-M   'P 1'
_cell_length_a   6.21175252
_cell_length_b   6.21175252
_cell_length_c   11.68077704
_cell_angle_alpha   90.00000000
_cell_angle_beta   90.00000000
_cell_angle_gamma   119.99999654
_symmetry_Int_Tables_number   1
_chemical_formula_structural   HfFeCl6
_chemical_formula_sum   'Hf2 Fe2 Cl12'
_cell_volume   390.32886728
_cell_formula_units_Z   2
loop_
 _symmetry_equiv_pos_site_id
 _symmetry_equiv_pos_as_xyz
  1  'x, y, z'
loop_
 _atom_site_type_symbol
 _atom_site_label
 _atom_site_symmetry_multiplicity
 _atom_site_fract_x
 _atom_site_fract_y
 _atom_site_fract_z
 _atom_site_occupancy
  Hf  Hf0  1  0.33333300  0.66666700  0.75000000  1
  Hf  Hf1  1  0.66666700  0.33333300  0.25000000  1
  Fe  Fe2  1  0.00000000  0.00000000  0.75000000  1
  Fe  Fe3  1  0.00000000  0.00000000  0.25000000  1
  Cl  Cl4  1  0.66523997  0.68186282  0.87082827  1
  Cl  Cl5  1  0.01662284  0.33476003  0.87082827  1
  Cl  Cl6  1  0.31813718  0.98337716  0.87082827  1
  Cl  Cl7  1  0.01662284  0.68186282  0.62917173  1
  Cl  Cl8  1  0.33476003  0.01662284  0.37082827  1
  Cl  Cl9  1  0.68186282  0.66523997  0.37082827  1
  Cl  Cl10  1  0.98337716  0.31813718  0.37082827  1
  Cl  Cl11  1  0.68186282  0.01662284  0.12917173  1
  Cl  Cl12  1  0.98337716  0.66523997  0.12917173  1
  Cl  Cl13  1  0.33476003  0.31813718  0.12917173  1
  Cl  Cl14  1  0.66523997  0.98337716  0.62917173  1
  Cl  Cl15  1  0.31813718  0.33476003  0.62917173  1
