# generated using pymatgen
data_FeO2
_symmetry_space_group_name_H-M   'P 1'
_cell_length_a   4.75581748
_cell_length_b   4.75581724
_cell_length_c   4.75581766
_cell_angle_alpha   34.46053212
_cell_angle_beta   34.46053265
_cell_angle_gamma   34.46053889
_symmetry_Int_Tables_number   1
_chemical_formula_structural   FeO2
_chemical_formula_sum   'Fe1 O2'
_cell_volume   30.72248541
_cell_formula_units_Z   1
loop_
 _symmetry_equiv_pos_site_id
 _symmetry_equiv_pos_as_xyz
  1  'x, y, z'
loop_
 _atom_site_type_symbol
 _atom_site_label
 _atom_site_symmetry_multiplicity
 _atom_site_fract_x
 _atom_site_fract_y
 _atom_site_fract_z
 _atom_site_occupancy
  Fe  Fe0  1  0.00000000  0.00000000  0.00000000  1
  O  O1  1  0.26151871  0.26151971  0.26151971  1
  O  O2  1  0.73848329  0.73848029  0.73848129  1
