# generated using pymatgen
data_TiTe2
_symmetry_space_group_name_H-M   'P 1'
_cell_length_a   3.79441967
_cell_length_b   3.79441967
_cell_length_c   6.59339853
_cell_angle_alpha   90.00000000
_cell_angle_beta   90.00000000
_cell_angle_gamma   120.00000958
_symmetry_Int_Tables_number   1
_chemical_formula_structural   TiTe2
_chemical_formula_sum   'Ti1 Te2'
_cell_volume   82.21113486
_cell_formula_units_Z   1
loop_
 _symmetry_equiv_pos_site_id
 _symmetry_equiv_pos_as_xyz
  1  'x, y, z'
loop_
 _atom_site_type_symbol
 _atom_site_label
 _atom_site_symmetry_multiplicity
 _atom_site_fract_x
 _atom_site_fract_y
 _atom_site_fract_z
 _atom_site_occupancy
  Ti  Ti0  1  0.00000000  0.00000000  0.00000000  1
  Te  Te1  1  0.66666700  0.33333300  0.74064594  1
  Te  Te2  1  0.33333300  0.66666700  0.25935406  1
