# generated using pymatgen
data_BBr3
_symmetry_space_group_name_H-M   'P 1'
_cell_length_a   6.40261888
_cell_length_b   6.40261888
_cell_length_c   6.73125855
_cell_angle_alpha   90.00000000
_cell_angle_beta   90.00000000
_cell_angle_gamma   120.00000168
_symmetry_Int_Tables_number   1
_chemical_formula_structural   BBr3
_chemical_formula_sum   'B2 Br6'
_cell_volume   238.96934776
_cell_formula_units_Z   2
loop_
 _symmetry_equiv_pos_site_id
 _symmetry_equiv_pos_as_xyz
  1  'x, y, z'
loop_
 _atom_site_type_symbol
 _atom_site_label
 _atom_site_symmetry_multiplicity
 _atom_site_fract_x
 _atom_site_fract_y
 _atom_site_fract_z
 _atom_site_occupancy
  B  B0  1  0.33333300  0.66666700  0.25000000  1
  B  B1  1  0.66666700  0.33333300  0.75000000  1
  Br  Br2  1  0.04468905  0.36104198  0.25000000  1
  Br  Br3  1  0.68364707  0.04468905  0.75000000  1
  Br  Br4  1  0.36104198  0.31635293  0.75000000  1
  Br  Br5  1  0.63895802  0.68364707  0.25000000  1
  Br  Br6  1  0.31635293  0.95531095  0.25000000  1
  Br  Br7  1  0.95531095  0.63895802  0.75000000  1
