# generated using pymatgen
data_PdBr2
_symmetry_space_group_name_H-M   'P 1'
_cell_length_a   3.96394112
_cell_length_b   6.64240011
_cell_length_c   25.11487875
_cell_angle_alpha   86.68737549
_cell_angle_beta   90.00000000
_cell_angle_gamma   90.00000000
_symmetry_Int_Tables_number   1
_chemical_formula_structural   PdBr2
_chemical_formula_sum   'Pd8 Br16'
_cell_volume   660.17191910
_cell_formula_units_Z   8
loop_
 _symmetry_equiv_pos_site_id
 _symmetry_equiv_pos_as_xyz
  1  'x, y, z'
loop_
 _atom_site_type_symbol
 _atom_site_label
 _atom_site_symmetry_multiplicity
 _atom_site_fract_x
 _atom_site_fract_y
 _atom_site_fract_z
 _atom_site_occupancy
  Pd  Pd0  1  0.75000000  0.62500000  0.87500000  1
  Pd  Pd1  1  0.25000000  0.37500000  0.12500000  1
  Pd  Pd2  1  0.75000000  0.62500000  0.37500000  1
  Pd  Pd3  1  0.75000000  0.12500000  0.87500000  1
  Pd  Pd4  1  0.25000000  0.87500000  0.62500000  1
  Pd  Pd5  1  0.25000000  0.87500000  0.12500000  1
  Pd  Pd6  1  0.75000000  0.12500000  0.37500000  1
  Pd  Pd7  1  0.25000000  0.37500000  0.62500000  1
  Br  Br8  1  0.57005214  0.36051108  0.94195217  1
  Br  Br9  1  0.07005214  0.63948892  0.55804783  1
  Br  Br10  1  0.42994786  0.63948892  0.05804783  1
  Br  Br11  1  0.92994786  0.36051108  0.44195217  1
  Br  Br12  1  0.57005214  0.38948892  0.80804783  1
  Br  Br13  1  0.42994786  0.13948892  0.55804783  1
  Br  Br14  1  0.92994786  0.86051108  0.94195217  1
  Br  Br15  1  0.92994786  0.88948892  0.80804783  1
  Br  Br16  1  0.42994786  0.11051108  0.69195217  1
  Br  Br17  1  0.07005214  0.11051108  0.19195217  1
  Br  Br18  1  0.57005214  0.88948892  0.30804783  1
  Br  Br19  1  0.92994786  0.38948892  0.30804783  1
  Br  Br20  1  0.42994786  0.61051108  0.19195217  1
  Br  Br21  1  0.07005214  0.61051108  0.69195217  1
  Br  Br22  1  0.07005214  0.13948892  0.05804783  1
  Br  Br23  1  0.57005214  0.86051108  0.44195217  1
