# generated using pymatgen
data_HoIO
_symmetry_space_group_name_H-M   'P 1'
_cell_length_a   3.91083251
_cell_length_b   3.91083251
_cell_length_c   9.21385051
_cell_angle_alpha   90.00000000
_cell_angle_beta   90.00000000
_cell_angle_gamma   90.00000000
_symmetry_Int_Tables_number   1
_chemical_formula_structural   HoIO
_chemical_formula_sum   'Ho2 I2 O2'
_cell_volume   140.92225868
_cell_formula_units_Z   2
loop_
 _symmetry_equiv_pos_site_id
 _symmetry_equiv_pos_as_xyz
  1  'x, y, z'
loop_
 _atom_site_type_symbol
 _atom_site_label
 _atom_site_symmetry_multiplicity
 _atom_site_fract_x
 _atom_site_fract_y
 _atom_site_fract_z
 _atom_site_occupancy
  Ho  Ho0  1  0.25000000  0.25000000  0.88130812  1
  Ho  Ho1  1  0.75000000  0.75000000  0.11869188  1
  I  I2  1  0.25000000  0.25000000  0.32347588  1
  I  I3  1  0.75000000  0.75000000  0.67652412  1
  O  O4  1  0.25000000  0.75000000  0.00000000  1
  O  O5  1  0.75000000  0.25000000  0.00000000  1
