# generated using pymatgen
data_Co3TeO8
_symmetry_space_group_name_H-M   'P 1'
_cell_length_a   5.83599152
_cell_length_b   5.83599137
_cell_length_c   5.56688612
_cell_angle_alpha   58.38760179
_cell_angle_beta   58.38760035
_cell_angle_gamma   60.00000326
_symmetry_Int_Tables_number   1
_chemical_formula_structural   Co3TeO8
_chemical_formula_sum   'Co3 Te1 O8'
_cell_volume   130.70755436
_cell_formula_units_Z   1
loop_
 _symmetry_equiv_pos_site_id
 _symmetry_equiv_pos_as_xyz
  1  'x, y, z'
loop_
 _atom_site_type_symbol
 _atom_site_label
 _atom_site_symmetry_multiplicity
 _atom_site_fract_x
 _atom_site_fract_y
 _atom_site_fract_z
 _atom_site_occupancy
  Co  Co0  1  0.50000000  0.00000000  -0.00000000  1
  Co  Co1  1  0.00000000  0.50000000  -0.00000000  1
  Co  Co2  1  0.50000000  0.50000000  -0.00000000  1
  Te  Te3  1  0.00000000  0.00000000  0.00000000  1
  O  O4  1  0.24554978  0.24554978  0.77937055  1
  O  O5  1  0.72952988  0.24554978  0.77937055  1
  O  O6  1  0.24554978  0.72952988  0.77937055  1
  O  O7  1  0.73287904  0.73287904  0.80136389  1
  O  O8  1  0.26712096  0.26712096  0.19863611  1
  O  O9  1  0.75445022  0.27047012  0.22062945  1
  O  O10  1  0.27047012  0.75445022  0.22062945  1
  O  O11  1  0.75445022  0.75445022  0.22062945  1
