# generated using pymatgen
data_MgCl2
_symmetry_space_group_name_H-M   'P 1'
_cell_length_a   6.18891670
_cell_length_b   6.18891648
_cell_length_c   6.18891644
_cell_angle_alpha   34.25829214
_cell_angle_beta   34.25829641
_cell_angle_gamma   34.25829189
_symmetry_Int_Tables_number   1
_chemical_formula_structural   MgCl2
_chemical_formula_sum   'Mg1 Cl2'
_cell_volume   66.98732290
_cell_formula_units_Z   1
loop_
 _symmetry_equiv_pos_site_id
 _symmetry_equiv_pos_as_xyz
  1  'x, y, z'
loop_
 _atom_site_type_symbol
 _atom_site_label
 _atom_site_symmetry_multiplicity
 _atom_site_fract_x
 _atom_site_fract_y
 _atom_site_fract_z
 _atom_site_occupancy
  Mg  Mg0  1  0.00000000  0.00000000  0.00000000  1
  Cl  Cl1  1  0.25481137  0.25481137  0.25481137  1
  Cl  Cl2  1  0.74518863  0.74518863  0.74518863  1
