# generated using pymatgen
data_YbI2
_symmetry_space_group_name_H-M   'P 1'
_cell_length_a   4.43345198
_cell_length_b   4.43345225
_cell_length_c   6.93922092
_cell_angle_alpha   90.00000000
_cell_angle_beta   90.00000000
_cell_angle_gamma   119.99999799
_symmetry_Int_Tables_number   1
_chemical_formula_structural   YbI2
_chemical_formula_sum   'Yb1 I2'
_cell_volume   118.12053328
_cell_formula_units_Z   1
loop_
 _symmetry_equiv_pos_site_id
 _symmetry_equiv_pos_as_xyz
  1  'x, y, z'
loop_
 _atom_site_type_symbol
 _atom_site_label
 _atom_site_symmetry_multiplicity
 _atom_site_fract_x
 _atom_site_fract_y
 _atom_site_fract_z
 _atom_site_occupancy
  Yb  Yb0  1  0.00000000  0.00000000  0.00000000  1
  I  I1  1  0.66666700  0.33333300  0.74571188  1
  I  I2  1  0.33333300  0.66666700  0.25428812  1
