# generated using pymatgen
data_GeS
_symmetry_space_group_name_H-M   'P 1'
_cell_length_a   3.68971912
_cell_length_b   4.37876486
_cell_length_c   10.71545179
_cell_angle_alpha   90.00000000
_cell_angle_beta   90.00000000
_cell_angle_gamma   90.00000000
_symmetry_Int_Tables_number   1
_chemical_formula_structural   GeS
_chemical_formula_sum   'Ge4 S4'
_cell_volume   173.12325836
_cell_formula_units_Z   4
loop_
 _symmetry_equiv_pos_site_id
 _symmetry_equiv_pos_as_xyz
  1  'x, y, z'
loop_
 _atom_site_type_symbol
 _atom_site_label
 _atom_site_symmetry_multiplicity
 _atom_site_fract_x
 _atom_site_fract_y
 _atom_site_fract_z
 _atom_site_occupancy
  Ge  Ge0  1  0.25000000  0.36517637  0.87563872  1
  Ge  Ge1  1  0.75000000  0.63482363  0.12436128  1
  Ge  Ge2  1  0.75000000  0.86517637  0.62436128  1
  Ge  Ge3  1  0.25000000  0.13482363  0.37563872  1
  S  S4  1  0.25000000  0.49524150  0.65105749  1
  S  S5  1  0.75000000  0.50475850  0.34894251  1
  S  S6  1  0.75000000  -0.00475850  0.84894251  1
  S  S7  1  0.25000000  0.00475850  0.15105749  1
