# generated using pymatgen
data_TlTe3Pt2
_symmetry_space_group_name_H-M   'P 1'
_cell_length_a   8.04418635
_cell_length_b   8.04418635
_cell_length_c   5.86866803
_cell_angle_alpha   90.00000000
_cell_angle_beta   90.00000000
_cell_angle_gamma   119.99999420
_symmetry_Int_Tables_number   1
_chemical_formula_structural   TlTe3Pt2
_chemical_formula_sum   'Tl2 Te6 Pt4'
_cell_volume   328.87771505
_cell_formula_units_Z   2
loop_
 _symmetry_equiv_pos_site_id
 _symmetry_equiv_pos_as_xyz
  1  'x, y, z'
loop_
 _atom_site_type_symbol
 _atom_site_label
 _atom_site_symmetry_multiplicity
 _atom_site_fract_x
 _atom_site_fract_y
 _atom_site_fract_z
 _atom_site_occupancy
  Tl  Tl0  1  0.66666700  0.33333300  0.68657909  1
  Tl  Tl1  1  0.33333300  0.66666700  0.31342091  1
  Te  Te2  1  0.83074324  0.16925676  0.23201701  1
  Te  Te3  1  0.83074324  0.66148648  0.23201701  1
  Te  Te4  1  0.33851352  0.16925676  0.23201701  1
  Te  Te5  1  0.66148648  0.83074324  0.76798299  1
  Te  Te6  1  0.16925676  0.83074324  0.76798299  1
  Te  Te7  1  0.16925676  0.33851352  0.76798299  1
  Pt  Pt8  1  0.00000000  0.00000000  0.00000000  1
  Pt  Pt9  1  0.00000000  0.50000000  0.00000000  1
  Pt  Pt10  1  0.50000000  -0.00000000  0.00000000  1
  Pt  Pt11  1  0.50000000  0.50000000  0.00000000  1
