# generated using pymatgen
data_BiIO
_symmetry_space_group_name_H-M   'P 1'
_cell_length_a   4.03004603
_cell_length_b   4.03004603
_cell_length_c   9.28709176
_cell_angle_alpha   90.00000000
_cell_angle_beta   90.00000000
_cell_angle_gamma   90.00000000
_symmetry_Int_Tables_number   1
_chemical_formula_structural   BiIO
_chemical_formula_sum   'Bi2 I2 O2'
_cell_volume   150.83417411
_cell_formula_units_Z   2
loop_
 _symmetry_equiv_pos_site_id
 _symmetry_equiv_pos_as_xyz
  1  'x, y, z'
loop_
 _atom_site_type_symbol
 _atom_site_label
 _atom_site_symmetry_multiplicity
 _atom_site_fract_x
 _atom_site_fract_y
 _atom_site_fract_z
 _atom_site_occupancy
  Bi  Bi0  1  0.50000000  0.00000000  0.86662382  1
  Bi  Bi1  1  0.00000000  0.50000000  0.13337618  1
  I  I2  1  0.00000000  0.50000000  0.66765362  1
  I  I3  1  0.50000000  0.00000000  0.33234638  1
  O  O4  1  0.50000000  0.50000000  0.00000000  1
  O  O5  1  0.00000000  0.00000000  0.00000000  1
