# generated using pymatgen
data_MgI2
_symmetry_space_group_name_H-M   'P 1'
_cell_length_a   4.16882142
_cell_length_b   4.16882142
_cell_length_c   6.84961657
_cell_angle_alpha   90.00000000
_cell_angle_beta   90.00000000
_cell_angle_gamma   119.99999727
_symmetry_Int_Tables_number   1
_chemical_formula_structural   MgI2
_chemical_formula_sum   'Mg1 I2'
_cell_volume   103.09164958
_cell_formula_units_Z   1
loop_
 _symmetry_equiv_pos_site_id
 _symmetry_equiv_pos_as_xyz
  1  'x, y, z'
loop_
 _atom_site_type_symbol
 _atom_site_label
 _atom_site_symmetry_multiplicity
 _atom_site_fract_x
 _atom_site_fract_y
 _atom_site_fract_z
 _atom_site_occupancy
  Mg  Mg0  1  0.00000000  0.00000000  0.00000000  1
  I  I1  1  0.33333300  0.66666700  0.75571733  1
  I  I2  1  0.66666700  0.33333300  0.24428267  1
