# generated using pymatgen
data_HgBr2
_symmetry_space_group_name_H-M   'P 1'
_cell_length_a   7.09820017
_cell_length_b   7.09820093
_cell_length_c   6.19450233
_cell_angle_alpha   90.00000000
_cell_angle_beta   90.00000000
_cell_angle_gamma   119.99999768
_symmetry_Int_Tables_number   1
_chemical_formula_structural   HgBr2
_chemical_formula_sum   'Hg3 Br6'
_cell_volume   270.29225013
_cell_formula_units_Z   3
loop_
 _symmetry_equiv_pos_site_id
 _symmetry_equiv_pos_as_xyz
  1  'x, y, z'
loop_
 _atom_site_type_symbol
 _atom_site_label
 _atom_site_symmetry_multiplicity
 _atom_site_fract_x
 _atom_site_fract_y
 _atom_site_fract_z
 _atom_site_occupancy
  Hg  Hg0  1  0.33333300  0.66666700  0.47869912  1
  Hg  Hg1  1  0.00000000  0.00000000  0.47747263  1
  Hg  Hg2  1  0.66666700  0.33333300  0.47686916  1
  Br  Br3  1  0.00038763  0.33359562  0.21829815  1
  Br  Br4  1  0.99962169  0.66653244  0.73705488  1
  Br  Br5  1  0.33346756  0.33308925  0.73705488  1
  Br  Br6  1  0.33320799  0.99961237  0.21829815  1
  Br  Br7  1  0.66691075  0.00037831  0.73705488  1
  Br  Br8  1  0.66640438  0.66679201  0.21829815  1
