# generated using pymatgen
data_BiOF
_symmetry_space_group_name_H-M   'P 1'
_cell_length_a   3.99746339
_cell_length_b   7.13518221
_cell_length_c   3.99746375
_cell_angle_alpha   106.26757676
_cell_angle_beta   119.99999528
_cell_angle_gamma   90.00001510
_symmetry_Int_Tables_number   1
_chemical_formula_structural   BiOF
_chemical_formula_sum   'Bi2 O2 F2'
_cell_volume   93.43445764
_cell_formula_units_Z   2
loop_
 _symmetry_equiv_pos_site_id
 _symmetry_equiv_pos_as_xyz
  1  'x, y, z'
loop_
 _atom_site_type_symbol
 _atom_site_label
 _atom_site_symmetry_multiplicity
 _atom_site_fract_x
 _atom_site_fract_y
 _atom_site_fract_z
 _atom_site_occupancy
  Bi  Bi0  1  0.75992102  0.27976205  0.51984103  1
  Bi  Bi1  1  0.24007898  0.72023795  0.48015897  1
  O  O2  1  0.12726177  0.38178631  0.25452354  1
  O  O3  1  0.87273823  0.61821369  0.74547646  1
  F  F4  1  0.37629408  0.12888124  0.75258716  1
  F  F5  1  0.62370592  0.87111876  0.24741284  1
