# generated using pymatgen
data_LiBe
_symmetry_space_group_name_H-M   'P 1'
_cell_length_a   2.28267361
_cell_length_b   3.61644722
_cell_length_c   5.90404560
_cell_angle_alpha   90.00000000
_cell_angle_beta   112.43694121
_cell_angle_gamma   90.00000000
_symmetry_Int_Tables_number   1
_chemical_formula_structural   LiBe
_chemical_formula_sum   'Li2 Be2'
_cell_volume   45.04936521
_cell_formula_units_Z   2
loop_
 _symmetry_equiv_pos_site_id
 _symmetry_equiv_pos_as_xyz
  1  'x, y, z'
loop_
 _atom_site_type_symbol
 _atom_site_label
 _atom_site_symmetry_multiplicity
 _atom_site_fract_x
 _atom_site_fract_y
 _atom_site_fract_z
 _atom_site_occupancy
  Li  Li0  1  0.59458060  0.75000000  0.84541536  1
  Li  Li1  1  0.40541940  0.25000000  0.15458464  1
  Be  Be2  1  0.17413143  0.75000000  0.42377125  1
  Be  Be3  1  0.82586857  0.25000000  0.57622875  1
