# generated using pymatgen
data_ErSCl
_symmetry_space_group_name_H-M   'P 1'
_cell_length_a   3.94275200
_cell_length_b   5.31186110
_cell_length_c   7.43707996
_cell_angle_alpha   90.00000000
_cell_angle_beta   90.00000000
_cell_angle_gamma   90.00000000
_symmetry_Int_Tables_number   1
_chemical_formula_structural   ErSCl
_chemical_formula_sum   'Er2 S2 Cl2'
_cell_volume   155.75737602
_cell_formula_units_Z   2
loop_
 _symmetry_equiv_pos_site_id
 _symmetry_equiv_pos_as_xyz
  1  'x, y, z'
loop_
 _atom_site_type_symbol
 _atom_site_label
 _atom_site_symmetry_multiplicity
 _atom_site_fract_x
 _atom_site_fract_y
 _atom_site_fract_z
 _atom_site_occupancy
  Er  Er0  1  0.00000000  0.00000000  0.15374642  1
  Er  Er1  1  0.50000000  0.50000000  0.84625358  1
  S  S2  1  0.50000000  0.00000000  0.90126761  1
  S  S3  1  0.00000000  0.50000000  0.09873239  1
  Cl  Cl4  1  0.00000000  0.50000000  0.61048002  1
  Cl  Cl5  1  0.50000000  0.00000000  0.38951998  1
