# generated using pymatgen
data_TbGaI
_symmetry_space_group_name_H-M   'P 1'
_cell_length_a   4.18855416
_cell_length_b   4.18855416
_cell_length_c   11.45305953
_cell_angle_alpha   90.00000000
_cell_angle_beta   90.00000000
_cell_angle_gamma   120.00000824
_symmetry_Int_Tables_number   1
_chemical_formula_structural   TbGaI
_chemical_formula_sum   'Tb2 Ga2 I2'
_cell_volume   174.01247484
_cell_formula_units_Z   2
loop_
 _symmetry_equiv_pos_site_id
 _symmetry_equiv_pos_as_xyz
  1  'x, y, z'
loop_
 _atom_site_type_symbol
 _atom_site_label
 _atom_site_symmetry_multiplicity
 _atom_site_fract_x
 _atom_site_fract_y
 _atom_site_fract_z
 _atom_site_occupancy
  Tb  Tb0  1  0.00000000  0.00000000  0.82401378  1
  Tb  Tb1  1  0.00000000  0.00000000  0.17598622  1
  Ga  Ga2  1  0.66666700  0.33333300  0.96864508  1
  Ga  Ga3  1  0.33333300  0.66666700  0.03135492  1
  I  I4  1  0.66666700  0.33333300  0.35086866  1
  I  I5  1  0.33333300  0.66666700  0.64913134  1
