# generated using pymatgen
data_Nb2CS2
_symmetry_space_group_name_H-M   'P 1'
_cell_length_a   8.82770597
_cell_length_b   8.82770562
_cell_length_c   8.82770569
_cell_angle_alpha   21.59235314
_cell_angle_beta   21.59236155
_cell_angle_gamma   21.59235566
_symmetry_Int_Tables_number   1
_chemical_formula_structural   Nb2CS2
_chemical_formula_sum   'Nb2 C1 S2'
_cell_volume   81.63546621
_cell_formula_units_Z   1
loop_
 _symmetry_equiv_pos_site_id
 _symmetry_equiv_pos_as_xyz
  1  'x, y, z'
loop_
 _atom_site_type_symbol
 _atom_site_label
 _atom_site_symmetry_multiplicity
 _atom_site_fract_x
 _atom_site_fract_y
 _atom_site_fract_z
 _atom_site_occupancy
  Nb  Nb0  1  0.62019087  0.62019087  0.62019087  1
  Nb  Nb1  1  0.37980913  0.37980913  0.37980913  1
  C  C2  1  0.00000000  0.00000000  0.00000000  1
  S  S3  1  0.77646922  0.77646922  0.77646922  1
  S  S4  1  0.22353078  0.22353078  0.22353078  1
