# generated using pymatgen
data_PrBrO
_symmetry_space_group_name_H-M   'P 1'
_cell_length_a   10.35099980
_cell_length_b   10.35099980
_cell_length_c   10.35099977
_cell_angle_alpha   22.55768923
_cell_angle_beta   22.55768923
_cell_angle_gamma   22.55769072
_symmetry_Int_Tables_number   1
_chemical_formula_structural   PrBrO
_chemical_formula_sum   'Pr2 Br2 O2'
_cell_volume   143.16491411
_cell_formula_units_Z   2
loop_
 _symmetry_equiv_pos_site_id
 _symmetry_equiv_pos_as_xyz
  1  'x, y, z'
loop_
 _atom_site_type_symbol
 _atom_site_label
 _atom_site_symmetry_multiplicity
 _atom_site_fract_x
 _atom_site_fract_y
 _atom_site_fract_z
 _atom_site_occupancy
  Pr  Pr0  1  0.21649932  0.21649932  0.21649932  1
  Pr  Pr1  1  0.78350068  0.78350068  0.78350068  1
  Br  Br2  1  0.38510472  0.38510472  0.38510472  1
  Br  Br3  1  0.61489528  0.61489528  0.61489528  1
  O  O4  1  0.13722359  0.13722359  0.13722359  1
  O  O5  1  0.86277641  0.86277641  0.86277641  1
