# generated using pymatgen
data_CoTe2
_symmetry_space_group_name_H-M   'P 1'
_cell_length_a   3.78245270
_cell_length_b   3.78245939
_cell_length_c   5.59738147
_cell_angle_alpha   89.99999858
_cell_angle_beta   90.00862467
_cell_angle_gamma   120.00004572
_symmetry_Int_Tables_number   1
_chemical_formula_structural   CoTe2
_chemical_formula_sum   'Co1 Te2'
_cell_volume   69.35265802
_cell_formula_units_Z   1
loop_
 _symmetry_equiv_pos_site_id
 _symmetry_equiv_pos_as_xyz
  1  'x, y, z'
loop_
 _atom_site_type_symbol
 _atom_site_label
 _atom_site_symmetry_multiplicity
 _atom_site_fract_x
 _atom_site_fract_y
 _atom_site_fract_z
 _atom_site_occupancy
  Co  Co0  1  0.00000000  0.00000000  0.00000000  1
  Te  Te1  1  0.66657914  0.33329007  0.76017194  1
  Te  Te2  1  0.33342086  0.66670993  0.23982806  1
