# generated using pymatgen
data_Tb2C
_symmetry_space_group_name_H-M   'P 1'
_cell_length_a   6.50114053
_cell_length_b   6.50114047
_cell_length_c   6.50114027
_cell_angle_alpha   32.03102891
_cell_angle_beta   32.03102992
_cell_angle_gamma   32.03103154
_symmetry_Int_Tables_number   1
_chemical_formula_structural   Tb2C
_chemical_formula_sum   'Tb2 C1'
_cell_volume   68.67775015
_cell_formula_units_Z   1
loop_
 _symmetry_equiv_pos_site_id
 _symmetry_equiv_pos_as_xyz
  1  'x, y, z'
loop_
 _atom_site_type_symbol
 _atom_site_label
 _atom_site_symmetry_multiplicity
 _atom_site_fract_x
 _atom_site_fract_y
 _atom_site_fract_z
 _atom_site_occupancy
  Tb  Tb0  1  0.74024617  0.74024617  0.74024617  1
  Tb  Tb1  1  0.25975383  0.25975383  0.25975383  1
  C  C2  1  0.00000000  0.00000000  0.00000000  1
