# generated using pymatgen
data_CaHBr
_symmetry_space_group_name_H-M   'P 1'
_cell_length_a   3.84081117
_cell_length_b   3.84081117
_cell_length_c   7.91196754
_cell_angle_alpha   90.00000000
_cell_angle_beta   90.00000000
_cell_angle_gamma   90.00000000
_symmetry_Int_Tables_number   1
_chemical_formula_structural   CaHBr
_chemical_formula_sum   'Ca2 H2 Br2'
_cell_volume   116.71600381
_cell_formula_units_Z   2
loop_
 _symmetry_equiv_pos_site_id
 _symmetry_equiv_pos_as_xyz
  1  'x, y, z'
loop_
 _atom_site_type_symbol
 _atom_site_label
 _atom_site_symmetry_multiplicity
 _atom_site_fract_x
 _atom_site_fract_y
 _atom_site_fract_z
 _atom_site_occupancy
  Ca  Ca0  1  0.00000000  0.50000000  0.16385305  1
  Ca  Ca1  1  0.50000000  0.00000000  0.83614695  1
  H  H2  1  0.50000000  0.50000000  0.00000000  1
  H  H3  1  0.00000000  0.00000000  0.00000000  1
  Br  Br4  1  0.00000000  0.50000000  0.66984396  1
  Br  Br5  1  0.50000000  0.00000000  0.33015604  1
