# generated using pymatgen
data_ZrSe2
_symmetry_space_group_name_H-M   'P 1'
_cell_length_a   3.79555383
_cell_length_b   3.79555383
_cell_length_c   6.19215732
_cell_angle_alpha   90.00000000
_cell_angle_beta   90.00000000
_cell_angle_gamma   120.00000004
_symmetry_Int_Tables_number   1
_chemical_formula_structural   ZrSe2
_chemical_formula_sum   'Zr1 Se2'
_cell_volume   77.25434659
_cell_formula_units_Z   1
loop_
 _symmetry_equiv_pos_site_id
 _symmetry_equiv_pos_as_xyz
  1  'x, y, z'
loop_
 _atom_site_type_symbol
 _atom_site_label
 _atom_site_symmetry_multiplicity
 _atom_site_fract_x
 _atom_site_fract_y
 _atom_site_fract_z
 _atom_site_occupancy
  Zr  Zr0  1  0.00000000  0.00000000  0.00000000  1
  Se  Se1  1  0.66666700  0.33333300  0.74427926  1
  Se  Se2  1  0.33333300  0.66666700  0.25572074  1
