# generated using pymatgen
data_LuBrO
_symmetry_space_group_name_H-M   'P 1'
_cell_length_a   3.74378356
_cell_length_b   3.74378356
_cell_length_c   8.34315686
_cell_angle_alpha   90.00000000
_cell_angle_beta   90.00000000
_cell_angle_gamma   90.00000000
_symmetry_Int_Tables_number   1
_chemical_formula_structural   LuBrO
_chemical_formula_sum   'Lu2 Br2 O2'
_cell_volume   116.93698032
_cell_formula_units_Z   2
loop_
 _symmetry_equiv_pos_site_id
 _symmetry_equiv_pos_as_xyz
  1  'x, y, z'
loop_
 _atom_site_type_symbol
 _atom_site_label
 _atom_site_symmetry_multiplicity
 _atom_site_fract_x
 _atom_site_fract_y
 _atom_site_fract_z
 _atom_site_occupancy
  Lu  Lu0  1  0.75000000  0.75000000  0.36822913  1
  Lu  Lu1  1  0.25000100  0.25000100  0.63176987  1
  Br  Br2  1  0.25000100  0.25000100  0.17115878  1
  Br  Br3  1  0.75000000  0.75000000  0.82884122  1
  O  O4  1  0.75000000  0.25000100  0.50000000  1
  O  O5  1  0.25000100  0.75000000  0.50000000  1
