# generated using pymatgen
data_BN
_symmetry_space_group_name_H-M   'P 1'
_cell_length_a   3.55650633
_cell_length_b   4.75099219
_cell_length_c   4.93510317
_cell_angle_alpha   90.00000000
_cell_angle_beta   90.00000000
_cell_angle_gamma   108.66598547
_symmetry_Int_Tables_number   1
_chemical_formula_structural   BN
_chemical_formula_sum   'B4 N4'
_cell_volume   79.00193429
_cell_formula_units_Z   4
loop_
 _symmetry_equiv_pos_site_id
 _symmetry_equiv_pos_as_xyz
  1  'x, y, z'
loop_
 _atom_site_type_symbol
 _atom_site_label
 _atom_site_symmetry_multiplicity
 _atom_site_fract_x
 _atom_site_fract_y
 _atom_site_fract_z
 _atom_site_occupancy
  B  B0  1  0.85831050  0.35839420  0.35729257  1
  B  B1  1  0.14168950  0.64160580  0.64270743  1
  B  B2  1  0.64168950  0.14160580  0.85729257  1
  B  B3  1  0.35831050  0.85839420  0.14270743  1
  N  N4  1  0.15809999  0.65701599  0.34377138  1
  N  N5  1  0.65809999  0.15701599  0.15622862  1
  N  N6  1  0.84190001  0.34298401  0.65622862  1
  N  N7  1  0.34190001  0.84298401  0.84377138  1
