# generated using pymatgen
data_VBr2O
_symmetry_space_group_name_H-M   'P 1'
_cell_length_a   3.62163283
_cell_length_b   3.65286260
_cell_length_c   6.86024217
_cell_angle_alpha   105.44397851
_cell_angle_beta   105.27410586
_cell_angle_gamma   90.00004174
_symmetry_Int_Tables_number   1
_chemical_formula_structural   VBr2O
_chemical_formula_sum   'V1 Br2 O1'
_cell_volume   84.14870448
_cell_formula_units_Z   1
loop_
 _symmetry_equiv_pos_site_id
 _symmetry_equiv_pos_as_xyz
  1  'x, y, z'
loop_
 _atom_site_type_symbol
 _atom_site_label
 _atom_site_symmetry_multiplicity
 _atom_site_fract_x
 _atom_site_fract_y
 _atom_site_fract_z
 _atom_site_occupancy
  V  V0  1  0.00000000  0.00000000  0.00000000  1
  Br  Br1  1  0.13997551  0.64019440  0.28035210  1
  Br  Br2  1  0.86002449  0.35980560  0.71964790  1
  O  O3  1  0.50000000  0.00000000  0.00000000  1
