# generated using pymatgen
data_UBrN
_symmetry_space_group_name_H-M   'P 1'
_cell_length_a   3.85106872
_cell_length_b   3.85106872
_cell_length_c   8.43031210
_cell_angle_alpha   90.00000000
_cell_angle_beta   90.00000000
_cell_angle_gamma   90.00000000
_symmetry_Int_Tables_number   1
_chemical_formula_structural   UBrN
_chemical_formula_sum   'U2 Br2 N2'
_cell_volume   125.02768463
_cell_formula_units_Z   2
loop_
 _symmetry_equiv_pos_site_id
 _symmetry_equiv_pos_as_xyz
  1  'x, y, z'
loop_
 _atom_site_type_symbol
 _atom_site_label
 _atom_site_symmetry_multiplicity
 _atom_site_fract_x
 _atom_site_fract_y
 _atom_site_fract_z
 _atom_site_occupancy
  U  U0  1  0.50000000  0.00000000  0.86157608  1
  U  U1  1  0.00000000  0.50000000  0.13842392  1
  Br  Br2  1  0.00000000  0.50000000  0.65737574  1
  Br  Br3  1  0.50000000  0.00000000  0.34262426  1
  N  N4  1  0.50000000  0.50000000  0.00000000  1
  N  N5  1  0.00000000  0.00000000  0.00000000  1
