# generated using pymatgen
data_TaS2
_symmetry_space_group_name_H-M   'P 1'
_cell_length_a   3.34286706
_cell_length_b   3.34286706
_cell_length_c   12.17802920
_cell_angle_alpha   90.00000000
_cell_angle_beta   90.00000000
_cell_angle_gamma   120.00001558
_symmetry_Int_Tables_number   1
_chemical_formula_structural   TaS2
_chemical_formula_sum   'Ta2 S4'
_cell_volume   117.85439613
_cell_formula_units_Z   2
loop_
 _symmetry_equiv_pos_site_id
 _symmetry_equiv_pos_as_xyz
  1  'x, y, z'
loop_
 _atom_site_type_symbol
 _atom_site_label
 _atom_site_symmetry_multiplicity
 _atom_site_fract_x
 _atom_site_fract_y
 _atom_site_fract_z
 _atom_site_occupancy
  Ta  Ta0  1  0.00000000  0.00000000  0.75000000  1
  Ta  Ta1  1  0.00000000  0.00000000  0.25000000  1
  S  S2  1  0.33333300  0.66666700  0.87854995  1
  S  S3  1  0.66666700  0.33333300  0.37854995  1
  S  S4  1  0.66666700  0.33333300  0.12145005  1
  S  S5  1  0.33333300  0.66666700  0.62145005  1
