# generated using pymatgen
data_NbS2
_symmetry_space_group_name_H-M   'P 1'
_cell_length_a   3.07561491
_cell_length_b   3.07561491
_cell_length_c   6.24262082
_cell_angle_alpha   104.26103606
_cell_angle_beta   104.26103606
_cell_angle_gamma   90.00000000
_symmetry_Int_Tables_number   1
_chemical_formula_structural   NbS2
_chemical_formula_sum   'Nb1 S2'
_cell_volume   55.35217421
_cell_formula_units_Z   1
loop_
 _symmetry_equiv_pos_site_id
 _symmetry_equiv_pos_as_xyz
  1  'x, y, z'
loop_
 _atom_site_type_symbol
 _atom_site_label
 _atom_site_symmetry_multiplicity
 _atom_site_fract_x
 _atom_site_fract_y
 _atom_site_fract_z
 _atom_site_occupancy
  Nb  Nb0  1  0.00000000  0.00000000  0.00000000  1
  S  S1  1  0.62700995  0.62700995  0.25401890  1
  S  S2  1  0.37299005  0.37299005  0.74598110  1
