# generated using pymatgen
data_RuCl2O
_symmetry_space_group_name_H-M   'P 1'
_cell_length_a   3.56906285
_cell_length_b   3.67666439
_cell_length_c   6.17916187
_cell_angle_alpha   107.33510424
_cell_angle_beta   106.78601901
_cell_angle_gamma   90.00000897
_symmetry_Int_Tables_number   1
_chemical_formula_structural   RuCl2O
_chemical_formula_sum   'Ru1 Cl2 O1'
_cell_volume   73.77420618
_cell_formula_units_Z   1
loop_
 _symmetry_equiv_pos_site_id
 _symmetry_equiv_pos_as_xyz
  1  'x, y, z'
loop_
 _atom_site_type_symbol
 _atom_site_label
 _atom_site_symmetry_multiplicity
 _atom_site_fract_x
 _atom_site_fract_y
 _atom_site_fract_z
 _atom_site_occupancy
  Ru  Ru0  1  0.00000000  0.00000000  0.00000000  1
  Cl  Cl1  1  0.35634508  0.85612735  0.71268916  1
  Cl  Cl2  1  0.64365492  0.14387265  0.28731084  1
  O  O3  1  0.00000000  0.50000000  -0.00000000  1
