# generated using pymatgen
data_Sb2TeSe2
_symmetry_space_group_name_H-M   'P 1'
_cell_length_a   10.07531829
_cell_length_b   10.07531815
_cell_length_c   10.07531889
_cell_angle_alpha   23.92340800
_cell_angle_beta   23.92341145
_cell_angle_gamma   23.92340843
_symmetry_Int_Tables_number   1
_chemical_formula_structural   Sb2TeSe2
_chemical_formula_sum   'Sb2 Te1 Se2'
_cell_volume   147.76843435
_cell_formula_units_Z   1
loop_
 _symmetry_equiv_pos_site_id
 _symmetry_equiv_pos_as_xyz
  1  'x, y, z'
loop_
 _atom_site_type_symbol
 _atom_site_label
 _atom_site_symmetry_multiplicity
 _atom_site_fract_x
 _atom_site_fract_y
 _atom_site_fract_z
 _atom_site_occupancy
  Sb  Sb0  1  0.59565358  0.59565358  0.59565358  1
  Sb  Sb1  1  0.40434642  0.40434642  0.40434642  1
  Te  Te2  1  0.00000000  0.00000000  0.00000000  1
  Se  Se3  1  0.21086153  0.21086153  0.21086153  1
  Se  Se4  1  0.78913847  0.78913847  0.78913847  1
