# generated using pymatgen
data_NdI2
_symmetry_space_group_name_H-M   'P 1'
_cell_length_a   3.87318712
_cell_length_b   3.87318634
_cell_length_c   7.55673018
_cell_angle_alpha   104.84908606
_cell_angle_beta   104.84908760
_cell_angle_gamma   89.99999490
_symmetry_Int_Tables_number   1
_chemical_formula_structural   NdI2
_chemical_formula_sum   'Nd1 I2'
_cell_volume   105.65560168
_cell_formula_units_Z   1
loop_
 _symmetry_equiv_pos_site_id
 _symmetry_equiv_pos_as_xyz
  1  'x, y, z'
loop_
 _atom_site_type_symbol
 _atom_site_label
 _atom_site_symmetry_multiplicity
 _atom_site_fract_x
 _atom_site_fract_y
 _atom_site_fract_z
 _atom_site_occupancy
  Nd  Nd0  1  0.00000000  0.00000000  0.00000000  1
  I  I1  1  0.63401626  0.63401626  0.26803252  1
  I  I2  1  0.36598374  0.36598374  0.73196748  1
