# generated using pymatgen
data_CrS2
_symmetry_space_group_name_H-M   'P 1'
_cell_length_a   3.33957811
_cell_length_b   3.33958928
_cell_length_c   5.38311112
_cell_angle_alpha   90.00429408
_cell_angle_beta   90.00000000
_cell_angle_gamma   119.99988935
_symmetry_Int_Tables_number   1
_chemical_formula_structural   CrS2
_chemical_formula_sum   'Cr1 S2'
_cell_volume   51.99350825
_cell_formula_units_Z   1
loop_
 _symmetry_equiv_pos_site_id
 _symmetry_equiv_pos_as_xyz
  1  'x, y, z'
loop_
 _atom_site_type_symbol
 _atom_site_label
 _atom_site_symmetry_multiplicity
 _atom_site_fract_x
 _atom_site_fract_y
 _atom_site_fract_z
 _atom_site_occupancy
  Cr  Cr0  1  0.99996209  0.00000000  0.00000000  1
  S  S1  1  0.33331643  0.66669396  0.25028053  1
  S  S2  1  0.66662148  0.33330604  0.74971947  1
