# generated using pymatgen
data_MoBr3
_symmetry_space_group_name_H-M   'P 1'
_cell_length_a   6.07417607
_cell_length_b   6.59248663
_cell_length_c   11.40692093
_cell_angle_alpha   90.00000000
_cell_angle_beta   90.00000000
_cell_angle_gamma   90.00000000
_symmetry_Int_Tables_number   1
_chemical_formula_structural   MoBr3
_chemical_formula_sum   'Mo4 Br12'
_cell_volume   456.77788087
_cell_formula_units_Z   4
loop_
 _symmetry_equiv_pos_site_id
 _symmetry_equiv_pos_as_xyz
  1  'x, y, z'
loop_
 _atom_site_type_symbol
 _atom_site_label
 _atom_site_symmetry_multiplicity
 _atom_site_fract_x
 _atom_site_fract_y
 _atom_site_fract_z
 _atom_site_occupancy
  Mo  Mo0  1  0.72857953  0.25635821  0.50000000  1
  Mo  Mo1  1  0.22857953  0.74364179  0.00000000  1
  Mo  Mo2  1  0.27142047  0.25635821  0.50000000  1
  Mo  Mo3  1  0.77142047  0.74364179  0.00000000  1
  Br  Br4  1  0.50000000  0.09276494  0.66393994  1
  Br  Br5  1  0.00000000  0.90723506  0.83606006  1
  Br  Br6  1  0.50000000  0.09276494  0.33606006  1
  Br  Br7  1  0.00000000  0.90723506  0.16393994  1
  Br  Br8  1  0.00000000  0.41636632  0.00000000  1
  Br  Br9  1  0.50000000  0.58363368  0.50000000  1
  Br  Br10  1  0.50000000  0.05350683  0.00000000  1
  Br  Br11  1  0.00000000  0.94649317  0.50000000  1
  Br  Br12  1  0.00000000  0.41115135  0.34504671  1
  Br  Br13  1  0.50000000  0.58884865  0.15495329  1
  Br  Br14  1  0.00000000  0.41115135  0.65495329  1
  Br  Br15  1  0.50000000  0.58884865  0.84504671  1
