# generated using pymatgen
data_AlPS4
_symmetry_space_group_name_H-M   'P 1'
_cell_length_a   5.69553099
_cell_length_b   5.69759141
_cell_length_c   9.36718687
_cell_angle_alpha   90.00000000
_cell_angle_beta   90.00000000
_cell_angle_gamma   90.00000000
_symmetry_Int_Tables_number   1
_chemical_formula_structural   AlPS4
_chemical_formula_sum   'Al2 P2 S8'
_cell_volume   303.97278686
_cell_formula_units_Z   2
loop_
 _symmetry_equiv_pos_site_id
 _symmetry_equiv_pos_as_xyz
  1  'x, y, z'
loop_
 _atom_site_type_symbol
 _atom_site_label
 _atom_site_symmetry_multiplicity
 _atom_site_fract_x
 _atom_site_fract_y
 _atom_site_fract_z
 _atom_site_occupancy
  Al  Al0  1  0.00000000  0.00000000  0.00000000  1
  Al  Al1  1  0.50000000  0.00000000  0.50000000  1
  P  P2  1  0.00000000  0.50000000  0.00000000  1
  P  P3  1  0.00000000  0.00000000  0.50000000  1
  S  S4  1  0.21232101  0.27574745  0.11727722  1
  S  S5  1  0.21232101  0.72425255  0.88272278  1
  S  S6  1  0.78767899  0.27574745  0.88272278  1
  S  S7  1  0.78767899  0.72425255  0.11727722  1
  S  S8  1  0.77438021  0.79161192  0.61977609  1
  S  S9  1  0.77438021  0.20838808  0.38022391  1
  S  S10  1  0.22561979  0.79161192  0.38022391  1
  S  S11  1  0.22561979  0.20838808  0.61977609  1
