# generated using pymatgen
data_TaSe2
_symmetry_space_group_name_H-M   'P 1'
_cell_length_a   3.50710327
_cell_length_b   3.50710327
_cell_length_c   6.33427046
_cell_angle_alpha   90.00000000
_cell_angle_beta   90.00000000
_cell_angle_gamma   119.99999013
_symmetry_Int_Tables_number   1
_chemical_formula_structural   TaSe2
_chemical_formula_sum   'Ta1 Se2'
_cell_volume   67.47212490
_cell_formula_units_Z   1
loop_
 _symmetry_equiv_pos_site_id
 _symmetry_equiv_pos_as_xyz
  1  'x, y, z'
loop_
 _atom_site_type_symbol
 _atom_site_label
 _atom_site_symmetry_multiplicity
 _atom_site_fract_x
 _atom_site_fract_y
 _atom_site_fract_z
 _atom_site_occupancy
  Ta  Ta0  1  0.00000000  0.00000000  0.00000000  1
  Se  Se1  1  0.66666700  0.33333300  0.73929309  1
  Se  Se2  1  0.33333300  0.66666700  0.26070691  1
