# generated using pymatgen
data_TmBrO
_symmetry_space_group_name_H-M   'P 1'
_cell_length_a   4.10476990
_cell_length_b   3.76578009
_cell_length_c   8.91937834
_cell_angle_alpha   90.00000000
_cell_angle_beta   90.00000000
_cell_angle_gamma   90.00000000
_symmetry_Int_Tables_number   1
_chemical_formula_structural   TmBrO
_chemical_formula_sum   'Tm2 Br2 O2'
_cell_volume   137.87272464
_cell_formula_units_Z   2
loop_
 _symmetry_equiv_pos_site_id
 _symmetry_equiv_pos_as_xyz
  1  'x, y, z'
loop_
 _atom_site_type_symbol
 _atom_site_label
 _atom_site_symmetry_multiplicity
 _atom_site_fract_x
 _atom_site_fract_y
 _atom_site_fract_z
 _atom_site_occupancy
  Tm  Tm0  1  0.25000000  0.25000000  0.11444103  1
  Tm  Tm1  1  0.75000000  0.75000000  0.88555897  1
  Br  Br2  1  0.25000000  0.75000000  0.34419570  1
  Br  Br3  1  0.75000000  0.25000000  0.65580430  1
  O  O4  1  0.25000000  0.75000000  0.97345122  1
  O  O5  1  0.75000000  0.25000000  0.02654878  1
