# generated using pymatgen
data_NaNO2
_symmetry_space_group_name_H-M   'P 1'
_cell_length_a   3.47894156
_cell_length_b   4.25501367
_cell_length_c   4.25501376
_cell_angle_alpha   79.63971080
_cell_angle_beta   65.87021674
_cell_angle_gamma   65.87020425
_symmetry_Int_Tables_number   1
_chemical_formula_structural   NaNO2
_chemical_formula_sum   'Na1 N1 O2'
_cell_volume   52.45417644
_cell_formula_units_Z   1
loop_
 _symmetry_equiv_pos_site_id
 _symmetry_equiv_pos_as_xyz
  1  'x, y, z'
loop_
 _atom_site_type_symbol
 _atom_site_label
 _atom_site_symmetry_multiplicity
 _atom_site_fract_x
 _atom_site_fract_y
 _atom_site_fract_z
 _atom_site_occupancy
  Na  Na0  1  0.58633430  0.41366570  0.41366570  1
  N  N1  1  0.12475758  0.87524242  0.87524242  1
  O  O2  1  0.00000356  0.80399732  0.19599457  1
  O  O3  1  0.00000356  0.19599457  0.80399732  1
