# generated using pymatgen
data_LiVF4
_symmetry_space_group_name_H-M   'P 1'
_cell_length_a   4.59664980
_cell_length_b   3.08801612
_cell_length_c   6.41841096
_cell_angle_alpha   90.00000000
_cell_angle_beta   134.01934526
_cell_angle_gamma   90.00000000
_symmetry_Int_Tables_number   1
_chemical_formula_structural   LiVF4
_chemical_formula_sum   'Li1 V1 F4'
_cell_volume   65.51502889
_cell_formula_units_Z   1
loop_
 _symmetry_equiv_pos_site_id
 _symmetry_equiv_pos_as_xyz
  1  'x, y, z'
loop_
 _atom_site_type_symbol
 _atom_site_label
 _atom_site_symmetry_multiplicity
 _atom_site_fract_x
 _atom_site_fract_y
 _atom_site_fract_z
 _atom_site_occupancy
  Li  Li0  1  0.00000000  0.50000000  0.50000000  1
  V  V1  1  0.00000000  0.00000000  0.00000000  1
  F  F2  1  -0.00209180  0.00000000  0.70374786  1
  F  F3  1  0.61718616  0.50000000  0.80997658  1
  F  F4  1  0.38281384  0.50000000  0.19002342  1
  F  F5  1  0.00209180  0.00000000  0.29625214  1
