# generated using pymatgen
data_FeTe
_symmetry_space_group_name_H-M   'P 1'
_cell_length_a   3.65100345
_cell_length_b   3.65100345
_cell_length_c   6.57928832
_cell_angle_alpha   90.00000000
_cell_angle_beta   90.00000000
_cell_angle_gamma   90.00000000
_symmetry_Int_Tables_number   1
_chemical_formula_structural   FeTe
_chemical_formula_sum   'Fe2 Te2'
_cell_volume   87.70077004
_cell_formula_units_Z   2
loop_
 _symmetry_equiv_pos_site_id
 _symmetry_equiv_pos_as_xyz
  1  'x, y, z'
loop_
 _atom_site_type_symbol
 _atom_site_label
 _atom_site_symmetry_multiplicity
 _atom_site_fract_x
 _atom_site_fract_y
 _atom_site_fract_z
 _atom_site_occupancy
  Fe  Fe0  1  0.50000000  0.50000000  0.00000000  1
  Fe  Fe1  1  0.00000000  0.00000000  0.00000000  1
  Te  Te2  1  0.50000000  0.00000000  0.27970219  1
  Te  Te3  1  0.00000000  0.50000000  0.72029781  1
