# generated using pymatgen
data_InSe
_symmetry_space_group_name_H-M   'P 1'
_cell_length_a   8.72944036
_cell_length_b   8.72944029
_cell_length_c   8.72944007
_cell_angle_alpha   27.01244562
_cell_angle_beta   27.01244918
_cell_angle_gamma   27.01244746
_symmetry_Int_Tables_number   1
_chemical_formula_structural   InSe
_chemical_formula_sum   'In2 Se2'
_cell_volume   121.03661600
_cell_formula_units_Z   2
loop_
 _symmetry_equiv_pos_site_id
 _symmetry_equiv_pos_as_xyz
  1  'x, y, z'
loop_
 _atom_site_type_symbol
 _atom_site_label
 _atom_site_symmetry_multiplicity
 _atom_site_fract_x
 _atom_site_fract_y
 _atom_site_fract_z
 _atom_site_occupancy
  In  In0  1  0.11189022  0.11189022  0.11189022  1
  In  In1  1  0.00033095  0.00033095  0.00033095  1
  Se  Se2  1  0.61629213  0.61629213  0.61629213  1
  Se  Se3  1  0.82918669  0.82918669  0.82918669  1
